

        *** GPGPU-Sim Simulator Version 4.0.0  [build gpgpu-sim_git-commit-90ec3399763d7c8512cfe7dc193473086c38ca38_modified_0.0] ***


GPGPU-Sim PTX: simulation mode 0 (can change with PTX_SIM_MODE_FUNC environment variable:
               1=functional simulation only, 0=detailed performance simulator)
GPGPU-Sim PTX: overriding embedded ptx with ptx file (PTX_SIM_USE_PTX_FILE is set)
GPGPU-Sim: Configuration options:

-save_embedded_ptx                      0 # saves ptx files embedded in binary as <n>.ptx
-keep                                   0 # keep intermediate files created by GPGPU-Sim when interfacing with external programs
-gpgpu_ptx_save_converted_ptxplus                    0 # Saved converted ptxplus to a file
-gpgpu_occupancy_sm_number                   70 # The SM number to pass to ptxas when getting register usage for computing GPU occupancy. This parameter is required in the config.
-ptx_opcode_latency_int      4,13,4,5,145,21 # Opcode latencies for integers <ADD,MAX,MUL,MAD,DIV,SHFL>Default 1,1,19,25,145,32
-ptx_opcode_latency_fp          4,13,4,5,39 # Opcode latencies for single precision floating points <ADD,MAX,MUL,MAD,DIV>Default 1,1,1,1,30
-ptx_opcode_latency_dp         8,19,8,8,330 # Opcode latencies for double precision floating points <ADD,MAX,MUL,MAD,DIV>Default 8,8,8,8,335
-ptx_opcode_latency_sfu                  100 # Opcode latencies for SFU instructionsDefault 8
-ptx_opcode_latency_tesnor                   64 # Opcode latencies for Tensor instructionsDefault 64
-ptx_opcode_initiation_int          2,2,2,2,8,4 # Opcode initiation intervals for integers <ADD,MAX,MUL,MAD,DIV,SHFL>Default 1,1,4,4,32,4
-ptx_opcode_initiation_fp            2,2,2,2,4 # Opcode initiation intervals for single precision floating points <ADD,MAX,MUL,MAD,DIV>Default 1,1,1,1,5
-ptx_opcode_initiation_dp          4,4,4,4,130 # Opcode initiation intervals for double precision floating points <ADD,MAX,MUL,MAD,DIV>Default 8,8,8,8,130
-ptx_opcode_initiation_sfu                    8 # Opcode initiation intervals for sfu instructionsDefault 8
-ptx_opcode_initiation_tensor                   64 # Opcode initiation intervals for tensor instructionsDefault 64
-cdp_latency         7200,8000,100,12000,1600 # CDP API latency <cudaStreamCreateWithFlags, cudaGetParameterBufferV2_init_perWarp, cudaGetParameterBufferV2_perKernel, cudaLaunchDeviceV2_init_perWarp, cudaLaunchDevicV2_perKernel>Default 7200,8000,100,12000,1600
-network_mode                           2 # Interconnection network mode
-inter_config_file                   mesh # Interconnection network config file
-icnt_in_buffer_limit                  512 # in_buffer_limit
-icnt_out_buffer_limit                  512 # out_buffer_limit
-icnt_subnets                           2 # subnets
-icnt_arbiter_algo                      1 # arbiter_algo
-icnt_verbose                           0 # inct_verbose
-icnt_grant_cycles                      1 # grant_cycles
-gpgpu_ptx_use_cuobjdump                    1 # Use cuobjdump to extract ptx and sass from binaries
-gpgpu_experimental_lib_support                    0 # Try to extract code from cuda libraries [Broken because of unknown cudaGetExportTable]
-checkpoint_option                      0 #  checkpointing flag (0 = no checkpoint)
-checkpoint_kernel                      1 #  checkpointing during execution of which kernel (1- 1st kernel)
-checkpoint_CTA                         0 #  checkpointing after # of CTA (< less than total CTA)
-resume_option                          0 #  resume flag (0 = no resume)
-resume_kernel                          0 #  Resume from which kernel (1= 1st kernel)
-resume_CTA                             0 #  resume from which CTA 
-checkpoint_CTA_t                       0 #  resume from which CTA 
-checkpoint_insn_Y                      0 #  resume from which CTA 
-gpgpu_ptx_convert_to_ptxplus                    0 # Convert SASS (native ISA) to ptxplus and run ptxplus
-gpgpu_ptx_force_max_capability                   70 # Force maximum compute capability
-gpgpu_ptx_inst_debug_to_file                    0 # Dump executed instructions' debug information to file
-gpgpu_ptx_inst_debug_file       inst_debug.txt # Executed instructions' debug output file
-gpgpu_ptx_inst_debug_thread_uid                    1 # Thread UID for executed instructions' debug output
-gpgpu_simd_model                       1 # 1 = post-dominator
-gpgpu_shader_core_pipeline              2048:32 # shader core pipeline config, i.e., {<nthread>:<warpsize>}
-gpgpu_tex_cache:l1  N:4:128:256,L:R:m:N:L,T:512:8,128:2 # per-shader L1 texture cache  (READ-ONLY) config  {<nsets>:<bsize>:<assoc>,<rep>:<wr>:<alloc>:<wr_alloc>,<mshr>:<N>:<merge>,<mq>:<rf>}
-gpgpu_const_cache:l1 N:128:64:8,L:R:f:N:L,S:2:64,4 # per-shader L1 constant memory cache  (READ-ONLY) config  {<nsets>:<bsize>:<assoc>,<rep>:<wr>:<alloc>:<wr_alloc>,<mshr>:<N>:<merge>,<mq>} 
-gpgpu_cache:il1     N:64:128:16,L:R:f:N:L,S:2:48,4 # shader L1 instruction cache config  {<nsets>:<bsize>:<assoc>,<rep>:<wr>:<alloc>:<wr_alloc>,<mshr>:<N>:<merge>,<mq>} 
-gpgpu_cache:dl1     S:1:128:256,L:L:s:N:L,A:256:8,16:0,32 # per-shader L1 data cache config  {<nsets>:<bsize>:<assoc>,<rep>:<wr>:<alloc>:<wr_alloc>,<mshr>:<N>:<merge>,<mq> | none}
-gpgpu_l1_banks                         4 # The number of L1 cache banks
-gpgpu_l1_banks_byte_interleaving                   32 # l1 banks byte interleaving granularity
-gpgpu_l1_banks_hashing_function                    0 # l1 banks hashing function
-gpgpu_l1_latency                      20 # L1 Hit Latency
-gpgpu_smem_latency                    20 # smem Latency
-gpgpu_cache:dl1PrefL1                 none # per-shader L1 data cache config  {<nsets>:<bsize>:<assoc>,<rep>:<wr>:<alloc>:<wr_alloc>,<mshr>:<N>:<merge>,<mq> | none}
-gpgpu_cache:dl1PrefShared                 none # per-shader L1 data cache config  {<nsets>:<bsize>:<assoc>,<rep>:<wr>:<alloc>:<wr_alloc>,<mshr>:<N>:<merge>,<mq> | none}
-gpgpu_gmem_skip_L1D                    0 # global memory access skip L1D cache (implements -Xptxas -dlcm=cg, default=no skip)
-gpgpu_perfect_mem                      0 # enable perfect memory mode (no cache miss)
-n_regfile_gating_group                    4 # group of lanes that should be read/written together)
-gpgpu_clock_gated_reg_file                    0 # enable clock gated reg file for power calculations
-gpgpu_clock_gated_lanes                    0 # enable clock gated lanes for power calculations
-gpgpu_shader_registers                65536 # Number of registers per shader core. Limits number of concurrent CTAs. (default 8192)
-gpgpu_registers_per_block                65536 # Maximum number of registers per CTA. (default 8192)
-gpgpu_ignore_resources_limitation                    0 # gpgpu_ignore_resources_limitation (default 0)
-gpgpu_shader_cta                      32 # Maximum number of concurrent CTAs in shader (default 8)
-gpgpu_num_cta_barriers                   16 # Maximum number of named barriers per CTA (default 16)
-gpgpu_n_clusters                      80 # number of processing clusters
-gpgpu_n_cores_per_cluster                    1 # number of simd cores per cluster
-gpgpu_n_cluster_ejection_buffer_size                   32 # number of packets in ejection buffer
-gpgpu_n_ldst_response_buffer_size                    2 # number of response packets in ld/st unit ejection buffer
-gpgpu_shmem_per_block                65536 # Size of shared memory per thread block or CTA (default 48kB)
-gpgpu_shmem_size                   98304 # Size of shared memory per shader core (default 16kB)
-gpgpu_adaptive_cache_config                    1 # adaptive_cache_config
-gpgpu_shmem_sizeDefault                98304 # Size of shared memory per shader core (default 16kB)
-gpgpu_shmem_size_PrefL1                16384 # Size of shared memory per shader core (default 16kB)
-gpgpu_shmem_size_PrefShared                16384 # Size of shared memory per shader core (default 16kB)
-gpgpu_shmem_num_banks                   32 # Number of banks in the shared memory in each shader core (default 16)
-gpgpu_shmem_limited_broadcast                    0 # Limit shared memory to do one broadcast per cycle (default on)
-gpgpu_shmem_warp_parts                    1 # Number of portions a warp is divided into for shared memory bank conflict check 
-gpgpu_mem_unit_ports                    1 # The number of memory transactions allowed per core cycle
-gpgpu_shmem_warp_parts                    1 # Number of portions a warp is divided into for shared memory bank conflict check 
-gpgpu_warpdistro_shader                   -1 # Specify which shader core to collect the warp size distribution from
-gpgpu_warp_issue_shader                    0 # Specify which shader core to collect the warp issue distribution from
-gpgpu_local_mem_map                    1 # Mapping from local memory space address to simulated GPU physical address space (default = enabled)
-gpgpu_num_reg_banks                   16 # Number of register banks (default = 8)
-gpgpu_reg_bank_use_warp_id                    0 # Use warp ID in mapping registers to banks (default = off)
-gpgpu_sub_core_model                    1 # Sub Core Volta/Pascal model (default = off)
-gpgpu_enable_specialized_operand_collector                    0 # enable_specialized_operand_collector
-gpgpu_operand_collector_num_units_sp                    4 # number of collector units (default = 4)
-gpgpu_operand_collector_num_units_dp                    0 # number of collector units (default = 0)
-gpgpu_operand_collector_num_units_sfu                    4 # number of collector units (default = 4)
-gpgpu_operand_collector_num_units_int                    0 # number of collector units (default = 0)
-gpgpu_operand_collector_num_units_tensor_core                    4 # number of collector units (default = 4)
-gpgpu_operand_collector_num_units_mem                    2 # number of collector units (default = 2)
-gpgpu_operand_collector_num_units_gen                    8 # number of collector units (default = 0)
-gpgpu_operand_collector_num_in_ports_sp                    1 # number of collector unit in ports (default = 1)
-gpgpu_operand_collector_num_in_ports_dp                    0 # number of collector unit in ports (default = 0)
-gpgpu_operand_collector_num_in_ports_sfu                    1 # number of collector unit in ports (default = 1)
-gpgpu_operand_collector_num_in_ports_int                    0 # number of collector unit in ports (default = 0)
-gpgpu_operand_collector_num_in_ports_tensor_core                    1 # number of collector unit in ports (default = 1)
-gpgpu_operand_collector_num_in_ports_mem                    1 # number of collector unit in ports (default = 1)
-gpgpu_operand_collector_num_in_ports_gen                    8 # number of collector unit in ports (default = 0)
-gpgpu_operand_collector_num_out_ports_sp                    1 # number of collector unit in ports (default = 1)
-gpgpu_operand_collector_num_out_ports_dp                    0 # number of collector unit in ports (default = 0)
-gpgpu_operand_collector_num_out_ports_sfu                    1 # number of collector unit in ports (default = 1)
-gpgpu_operand_collector_num_out_ports_int                    0 # number of collector unit in ports (default = 0)
-gpgpu_operand_collector_num_out_ports_tensor_core                    1 # number of collector unit in ports (default = 1)
-gpgpu_operand_collector_num_out_ports_mem                    1 # number of collector unit in ports (default = 1)
-gpgpu_operand_collector_num_out_ports_gen                    8 # number of collector unit in ports (default = 0)
-gpgpu_coalesce_arch                   60 # Coalescing arch (GT200 = 13, Fermi = 20)
-gpgpu_num_sched_per_core                    4 # Number of warp schedulers per core
-gpgpu_max_insn_issue_per_warp                    1 # Max number of instructions that can be issued per warp in one cycle by scheduler (either 1 or 2)
-gpgpu_dual_issue_diff_exec_units                    1 # should dual issue use two different execution unit resources (Default = 1)
-gpgpu_simt_core_sim_order                    1 # Select the simulation order of cores in a cluster (0=Fix, 1=Round-Robin)
-gpgpu_pipeline_widths 4,4,4,4,4,4,4,4,4,4,8,4,4 # Pipeline widths ID_OC_SP,ID_OC_DP,ID_OC_INT,ID_OC_SFU,ID_OC_MEM,OC_EX_SP,OC_EX_DP,OC_EX_INT,OC_EX_SFU,OC_EX_MEM,EX_WB,ID_OC_TENSOR_CORE,OC_EX_TENSOR_CORE
-gpgpu_tensor_core_avail                    1 # Tensor Core Available (default=0)
-gpgpu_num_sp_units                     4 # Number of SP units (default=1)
-gpgpu_num_dp_units                     4 # Number of DP units (default=0)
-gpgpu_num_int_units                    4 # Number of INT units (default=0)
-gpgpu_num_sfu_units                    4 # Number of SF units (default=1)
-gpgpu_num_tensor_core_units                    4 # Number of tensor_core units (default=1)
-gpgpu_num_mem_units                    1 # Number if ldst units (default=1) WARNING: not hooked up to anything
-gpgpu_scheduler                      gto # Scheduler configuration: < lrr | gto | two_level_active > If two_level_active:<num_active_warps>:<inner_prioritization>:<outer_prioritization>For complete list of prioritization values see shader.h enum scheduler_prioritization_typeDefault: gto
-gpgpu_concurrent_kernel_sm                    0 # Support concurrent kernels on a SM (default = disabled)
-gpgpu_perfect_inst_const_cache                    1 # perfect inst and const cache mode, so all inst and const hits in the cache(default = disabled)
-gpgpu_inst_fetch_throughput                    4 # the number of fetched intruction per warp each cycle
-gpgpu_reg_file_port_throughput                    2 # the number ports of the register file
-specialized_unit_1         0,4,4,4,4,BRA # specialized unit config {<enabled>,<num_units>:<latency>:<initiation>,<ID_OC_SPEC>:<OC_EX_SPEC>,<NAME>}
-specialized_unit_2         0,4,4,4,4,BRA # specialized unit config {<enabled>,<num_units>:<latency>:<initiation>,<ID_OC_SPEC>:<OC_EX_SPEC>,<NAME>}
-specialized_unit_3         0,4,4,4,4,BRA # specialized unit config {<enabled>,<num_units>:<latency>:<initiation>,<ID_OC_SPEC>:<OC_EX_SPEC>,<NAME>}
-specialized_unit_4         0,4,4,4,4,BRA # specialized unit config {<enabled>,<num_units>:<latency>:<initiation>,<ID_OC_SPEC>:<OC_EX_SPEC>,<NAME>}
-specialized_unit_5         0,4,4,4,4,BRA # specialized unit config {<enabled>,<num_units>:<latency>:<initiation>,<ID_OC_SPEC>:<OC_EX_SPEC>,<NAME>}
-specialized_unit_6         0,4,4,4,4,BRA # specialized unit config {<enabled>,<num_units>:<latency>:<initiation>,<ID_OC_SPEC>:<OC_EX_SPEC>,<NAME>}
-specialized_unit_7         0,4,4,4,4,BRA # specialized unit config {<enabled>,<num_units>:<latency>:<initiation>,<ID_OC_SPEC>:<OC_EX_SPEC>,<NAME>}
-specialized_unit_8         0,4,4,4,4,BRA # specialized unit config {<enabled>,<num_units>:<latency>:<initiation>,<ID_OC_SPEC>:<OC_EX_SPEC>,<NAME>}
-gpgpu_perf_sim_memcpy                    1 # Fill the L2 cache on memcpy
-gpgpu_simple_dram_model                    0 # simple_dram_model with fixed latency and BW
-gpgpu_dram_scheduler                    1 # 0 = fifo, 1 = FR-FCFS (defaul)
-gpgpu_dram_partition_queues          64:64:64:64 # i2$:$2d:d2$:$2i
-l2_ideal                               0 # Use a ideal L2 cache that always hit
-gpgpu_cache:dl2     S:32:128:24,L:B:m:L:P,A:192:4,32:0,32 # unified banked L2 data cache config  {<nsets>:<bsize>:<assoc>,<rep>:<wr>:<alloc>:<wr_alloc>,<mshr>:<N>:<merge>,<mq>}
-gpgpu_cache:dl2_texture_only                    0 # L2 cache used for texture only
-gpgpu_n_mem                           32 # number of memory modules (e.g. memory controllers) in gpu
-gpgpu_n_sub_partition_per_mchannel                    2 # number of memory subpartition in each memory module
-gpgpu_n_mem_per_ctrlr                    1 # number of memory chips per memory controller
-gpgpu_memlatency_stat                   14 # track and display latency statistics 0x2 enables MC, 0x4 enables queue logs
-gpgpu_frfcfs_dram_sched_queue_size                   64 # 0 = unlimited (default); # entries per chip
-gpgpu_dram_return_queue_size                  192 # 0 = unlimited (default); # entries per chip
-gpgpu_dram_buswidth                   16 # default = 4 bytes (8 bytes per cycle at DDR)
-gpgpu_dram_burst_length                    2 # Burst length of each DRAM request (default = 4 data bus cycle)
-dram_data_command_freq_ratio                    2 # Frequency ratio between DRAM data bus and command bus (default = 2 times, i.e. DDR)
-gpgpu_dram_timing_opt nbk=16:CCD=1:RRD=3:RCD=12:RAS=28:RP=12:RC=40: CL=12:WL=2:CDLR=3:WR=10:nbkgrp=4:CCDL=2:RTPL=3 # DRAM timing parameters = {nbk:tCCD:tRRD:tRCD:tRAS:tRP:tRC:CL:WL:tCDLR:tWR:nbkgrp:tCCDL:tRTPL}
-gpgpu_l2_rop_latency                  160 # ROP queue latency (default 85)
-dram_latency                         100 # DRAM latency (default 30)
-dram_dual_bus_interface                    1 # dual_bus_interface (default = 0) 
-dram_bnk_indexing_policy                    0 # dram_bnk_indexing_policy (0 = normal indexing, 1 = Xoring with the higher bits) (Default = 0)
-dram_bnkgrp_indexing_policy                    1 # dram_bnkgrp_indexing_policy (0 = take higher bits, 1 = take lower bits) (Default = 0)
-dram_seperate_write_queue_enable                    0 # Seperate_Write_Queue_Enable
-dram_write_queue_size             32:28:16 # Write_Queue_Size
-dram_elimnate_rw_turnaround                    0 # elimnate_rw_turnaround i.e set tWTR and tRTW = 0
-icnt_flit_size                        40 # icnt_flit_size
-gpgpu_mem_addr_mapping dramid@8;00000000.00000000.00000000.00000000.0000RRRR.RRRRRRRR.RBBBCCCB.CCCSSSSS # mapping memory address to dram model {dramid@<start bit>;<memory address map>}
-gpgpu_mem_addr_test                    0 # run sweep test to check address mapping for aliased address
-gpgpu_mem_address_mask                    1 # 0 = old addressing mask, 1 = new addressing mask, 2 = new add. mask + flipped bank sel and chip sel bits
-gpgpu_memory_partition_indexing                    2 # 0 = no indexing, 1 = bitwise xoring, 2 = IPoly, 3 = custom indexing
-gpuwattch_xml_file         gpuwattch.xml # GPUWattch XML file
-power_simulation_enabled                    0 # Turn on power simulator (1=On, 0=Off)
-power_per_cycle_dump                    0 # Dump detailed power output each cycle
-power_trace_enabled                    0 # produce a file for the power trace (1=On, 0=Off)
-power_trace_zlevel                     6 # Compression level of the power trace output log (0=no comp, 9=highest)
-steady_power_levels_enabled                    0 # produce a file for the steady power levels (1=On, 0=Off)
-steady_state_definition                  8:4 # allowed deviation:number of samples
-gpgpu_max_cycle                        0 # terminates gpu simulation early (0 = no limit)
-gpgpu_max_insn                         0 # terminates gpu simulation early (0 = no limit)
-gpgpu_max_cta                          0 # terminates gpu simulation early (0 = no limit)
-gpgpu_max_completed_cta                    0 # terminates gpu simulation early (0 = no limit)
-gpgpu_runtime_stat                   500 # display runtime statistics such as dram utilization {<freq>:<flag>}
-liveness_message_freq                    1 # Minimum number of seconds between simulation liveness messages (0 = always print)
-gpgpu_compute_capability_major                    7 # Major compute capability version number
-gpgpu_compute_capability_minor                    0 # Minor compute capability version number
-gpgpu_flush_l1_cache                    1 # Flush L1 cache at the end of each kernel call
-gpgpu_flush_l2_cache                    0 # Flush L2 cache at the end of each kernel call
-gpgpu_deadlock_detect                    1 # Stop the simulation at deadlock (1=on (default), 0=off)
-gpgpu_ptx_instruction_classification                    0 # if enabled will classify ptx instruction types per kernel (Max 255 kernels now)
-gpgpu_ptx_sim_mode                     0 # Select between Performance (default) or Functional simulation (1)
-gpgpu_clock_domains 1132.0:1132.0:1132.0:850.0 # Clock Domain Frequencies in MhZ {<Core Clock>:<ICNT Clock>:<L2 Clock>:<DRAM Clock>}
-gpgpu_max_concurrent_kernel                    8 # maximum kernels that can run concurrently on GPU
-gpgpu_cflog_interval                    0 # Interval between each snapshot in control flow logger
-visualizer_enabled                     0 # Turn on visualizer output (1=On, 0=Off)
-visualizer_outputfile                 NULL # Specifies the output log file for visualizer
-visualizer_zlevel                      6 # Compression level of the visualizer output log (0=no comp, 9=highest)
-gpgpu_stack_size_limit                 1024 # GPU thread stack size
-gpgpu_heap_size_limit              8388608 # GPU malloc heap size 759f5834b2c37b8947936229d3cb934e  /root/gpgpu-sim_distribution/conv1/vectorAdd
Extracting PTX file and ptxas options    1: vectorAdd.1.sm_30.ptx -arch=sm_30

-gpgpu_runtime_sync_depth_limit                    2 # GPU device runtime synchronize depth
-gpgpu_runtime_pending_launch_count_limit                 2048 # GPU device runtime pending launch count
-trace_enabled                          0 # Turn on traces
-trace_components                    none # comma seperated list of traces to enable. Complete list found in trace_streams.tup. Default none
-trace_sampling_core                    0 # The core which is printed using CORE_DPRINTF. Default 0
-trace_sampling_memory_partition                   -1 # The memory partition which is printed using MEMPART_DPRINTF. Default -1 (i.e. all)
-enable_ptx_file_line_stats                    1 # Turn on PTX source line statistic profiling. (1 = On)
-ptx_line_stats_filename gpgpu_inst_stats.txt # Output file for PTX source line statistics.
-gpgpu_kernel_launch_latency                 5000 # Kernel launch latency in cycles. Default: 0
-gpgpu_cdp_enabled                      0 # Turn on CDP
-gpgpu_TB_launch_latency                    0 # thread block launch latency in cycles. Default: 0
DRAM Timing Options:
nbk                                    16 # number of banks
CCD                                     1 # column to column delay
RRD                                     3 # minimal delay between activation of rows in different banks
RCD                                    12 # row to column delay
RAS                                    28 # time needed to activate row
RP                                     12 # time needed to precharge (deactivate) row
RC                                     40 # row cycle time
CDLR                                    3 # switching from write to read (changes tWTR)
WR                                     10 # last data-in to row precharge
CL                                     12 # CAS latency
WL                                      2 # Write latency
nbkgrp                                  4 # number of bank groups
CCDL                                    2 # column to column delay between accesses to different bank groups
RTPL                                    3 # read to precharge delay between accesses to different bank groups
Total number of memory sub partition = 64
addr_dec_mask[CHIP]  = 0000000000001f00 	high:13 low:8
addr_dec_mask[BK]    = 00000000000e2000 	high:20 low:13
addr_dec_mask[ROW]   = 00000001fff00000 	high:33 low:20
addr_dec_mask[COL]   = 000000000001c0ff 	high:17 low:0
addr_dec_mask[BURST] = 000000000000001f 	high:5 low:0
sub_partition_id_mask = 0000000000002000
GPGPU-Sim uArch: clock freqs: 1132000000.000000:1132000000.000000:1132000000.000000:850000000.000000
GPGPU-Sim uArch: clock periods: 0.00000000088339222615:0.00000000088339222615:0.00000000088339222615:0.00000000117647058824
*** Initializing Memory Statistics ***
GPGPU-Sim uArch: performance model initialization complete.
self exe links to: /root/gpgpu-sim_distribution/conv1/vectorAdd
self exe links to: /root/gpgpu-sim_distribution/conv1/vectorAdd
10.1
GPGPU-Sim PTX: __cudaRegisterFatBinary, fat_cubin_handle = 1, filename=default
self exe links to: /root/gpgpu-sim_distribution/conv1/vectorAdd
Running md5sum using "md5sum /root/gpgpu-sim_distribution/conv1/vectorAdd "
self exe links to: /root/gpgpu-sim_distribution/conv1/vectorAdd
Extracting specific PTX file named vectorAdd.1.sm_30.ptx 
GPGPU-Sim PTX: __cudaRegisterFunction _Z13conv2d_kernelPfS_S_ii : hostFun 0x0x55a79d002a60, fat_cubin_handle = 1
GPGPU-Sim PTX: Parsing vectorAdd.1.sm_30.ptx
GPGPU-Sim PTX: instruction assembly for function '_Z13conv2d_kernelPfS_S_ii'...   done.
GPGPU-Sim PTX: finished parsing EMBEDDED .ptx file vectorAdd.1.sm_30.ptx
GPGPU-Sim PTX: loading globals with explicit initializers... 
GPGPU-Sim PTX: finished loading globals (0 bytes total).
GPGPU-Sim PTX: loading constants with explicit initializers...  done.
GPGPU-Sim PTX: Loading PTXInfo from vectorAdd.1.sm_30.ptx
GPGPU-Sim PTX: Kernel '_Z13conv2d_kernelPfS_S_ii' : regs=30, lmem=0, smem=0, cmem=352
GPGPU-Sim PTX: Setting up arguments for 8 bytes starting at 0x7ffd079fb868..
GPGPU-Sim PTX: Setting up arguments for 8 bytes starting at 0x7ffd079fb860..
GPGPU-Sim PTX: Setting up arguments for 8 bytes starting at 0x7ffd079fb858..
GPGPU-Sim PTX: Setting up arguments for 4 bytes starting at 0x7ffd079fb854..
GPGPU-Sim PTX: Setting up arguments for 4 bytes starting at 0x7ffd079fb850..

GPGPU-Sim PTX: cudaLaunch for 0x0x55a79d002a60 (mode=performance simulation) on stream 0
GPGPU-Sim PTX: finding reconvergence points for '_Z13conv2d_kernelPfS_S_ii'...
GPGPU-Sim PTX: Finding dominators for '_Z13conv2d_kernelPfS_S_ii'...
GPGPU-Sim PTX: Finding immediate dominators for '_Z13conv2d_kernelPfS_S_ii'...
GPGPU-Sim PTX: Finding postdominators for '_Z13conv2d_kernelPfS_S_ii'...
GPGPU-Sim PTX: Finding immediate postdominators for '_Z13conv2d_kernelPfS_S_ii'...
GPGPU-Sim PTX: pre-decoding instructions for '_Z13conv2d_kernelPfS_S_ii'...
GPGPU-Sim PTX: reconvergence points for _Z13conv2d_kernelPfS_S_ii...
GPGPU-Sim PTX:  1 (potential) branch divergence @  PC=0x078 (vectorAdd.1.sm_30.ptx:44) @%p1 bra BB0_15;
GPGPU-Sim PTX:    immediate post dominator      @  PC=0x378 (vectorAdd.1.sm_30.ptx:167) mad.lo.s32 %r40, %r1, %r15, %r2;
GPGPU-Sim PTX:  2 (potential) branch divergence @  PC=0x0f0 (vectorAdd.1.sm_30.ptx:62) @%p2 bra BB0_3;
GPGPU-Sim PTX:    immediate post dominator      @  PC=0x280 (vectorAdd.1.sm_30.ptx:129) setp.lt.u32%p5, %r16, 4;
GPGPU-Sim PTX:  3 (potential) branch divergence @  PC=0x100 (vectorAdd.1.sm_30.ptx:65) @%p3 bra BB0_5;
GPGPU-Sim PTX:    immediate post dominator      @  PC=0x218 (vectorAdd.1.sm_30.ptx:114) add.s32 %r36, %r5, %r43;
GPGPU-Sim PTX:  4 (potential) branch divergence @  PC=0x108 (vectorAdd.1.sm_30.ptx:66) bra.uni BB0_6;
GPGPU-Sim PTX:    immediate post dominator      @  PC=0x140 (vectorAdd.1.sm_30.ptx:79) setp.eq.s32%p4, %r31, 2;
GPGPU-Sim PTX:  5 (potential) branch divergence @  PC=0x118 (vectorAdd.1.sm_30.ptx:70) bra.uni BB0_10;
GPGPU-Sim PTX:    immediate post dominator      @  PC=0x218 (vectorAdd.1.sm_30.ptx:114) add.s32 %r36, %r5, %r43;
GPGPU-Sim PTX:  6 (potential) branch divergence @  PC=0x138 (vectorAdd.1.sm_30.ptx:76) bra.uni BB0_11;
GPGPU-Sim PTX:    immediate post dominator      @  PC=0x280 (vectorAdd.1.sm_30.ptx:129) setp.lt.u32%p5, %r16, 4;
GPGPU-Sim PTX:  7 (potential) branch divergence @  PC=0x148 (vectorAdd.1.sm_30.ptx:80) @%p4 bra BB0_7;
GPGPU-Sim PTX:    immediate post dominator      @  PC=0x1b8 (vectorAdd.1.sm_30.ptx:100) add.s32 %r34, %r5, %r42;
GPGPU-Sim PTX:  8 (potential) branch divergence @  PC=0x150 (vectorAdd.1.sm_30.ptx:81) bra.uni BB0_8;
GPGPU-Sim PTX:    immediate post dominator      @  PC=0x168 (vectorAdd.1.sm_30.ptx:88) cvta.to.global.u64 %rd10, %rd7;
GPGPU-Sim PTX:  9 (potential) branch divergence @  PC=0x160 (vectorAdd.1.sm_30.ptx:85) bra.uni BB0_9;
GPGPU-Sim PTX:    immediate post dominator      @  PC=0x1b8 (vectorAdd.1.sm_30.ptx:100) add.s32 %r34, %r5, %r42;
GPGPU-Sim PTX: 10 (potential) branch divergence @  PC=0x288 (vectorAdd.1.sm_30.ptx:130) @%p5 bra BB0_14;
GPGPU-Sim PTX:    immediate post dominator      @  PC=0x360 (vectorAdd.1.sm_30.ptx:162) add.s32 %r41, %r41, 1;
GPGPU-Sim PTX: 11 (potential) branch divergence @  PC=0x358 (vectorAdd.1.sm_30.ptx:159) @%p6 bra BB0_13;
GPGPU-Sim PTX:    immediate post dominator      @  PC=0x360 (vectorAdd.1.sm_30.ptx:162) add.s32 %r41, %r41, 1;
GPGPU-Sim PTX: 12 (potential) branch divergence @  PC=0x370 (vectorAdd.1.sm_30.ptx:164) @%p7 bra BB0_2;
GPGPU-Sim PTX:    immediate post dominator      @  PC=0x378 (vectorAdd.1.sm_30.ptx:167) mad.lo.s32 %r40, %r1, %r15, %r2;
GPGPU-Sim PTX: ... end of reconvergence points for _Z13conv2d_kernelPfS_S_ii
GPGPU-Sim PTX: ... done pre-decoding instructions for '_Z13conv2d_kernelPfS_S_ii'.
GPGPU-Sim PTX: pushing kernel '_Z13conv2d_kernelPfS_S_ii' to stream 0, gridDim= (64,64,1) blockDim = (4,4,1) 
GPGPU-Sim uArch: Shader 0 bind to kernel 1 '_Z13conv2d_kernelPfS_S_ii'
GPGPU-Sim uArch: CTA/core = 32, limited by: cta_limit
GPGPU-Sim: Reconfigure L1 cache to 128KB
GPGPU-Sim uArch: Shader 1 bind to kernel 1 '_Z13conv2d_kernelPfS_S_ii'
GPGPU-Sim uArch: Shader 2 bind to kernel 1 '_Z13conv2d_kernelPfS_S_ii'
GPGPU-Sim uArch: Shader 3 bind to kernel 1 '_Z13conv2d_kernelPfS_S_ii'
GPGPU-Sim uArch: Shader 4 bind to kernel 1 '_Z13conv2d_kernelPfS_S_ii'
GPGPU-Sim uArch: Shader 5 bind to kernel 1 '_Z13conv2d_kernelPfS_S_ii'
GPGPU-Sim uArch: Shader 6 bind to kernel 1 '_Z13conv2d_kernelPfS_S_ii'
GPGPU-Sim uArch: Shader 7 bind to kernel 1 '_Z13conv2d_kernelPfS_S_ii'
GPGPU-Sim uArch: Shader 8 bind to kernel 1 '_Z13conv2d_kernelPfS_S_ii'
GPGPU-Sim uArch: Shader 9 bind to kernel 1 '_Z13conv2d_kernelPfS_S_ii'
GPGPU-Sim uArch: Shader 10 bind to kernel 1 '_Z13conv2d_kernelPfS_S_ii'
GPGPU-Sim uArch: Shader 11 bind to kernel 1 '_Z13conv2d_kernelPfS_S_ii'
GPGPU-Sim uArch: Shader 12 bind to kernel 1 '_Z13conv2d_kernelPfS_S_ii'
GPGPU-Sim uArch: Shader 13 bind to kernel 1 '_Z13conv2d_kernelPfS_S_ii'
GPGPU-Sim uArch: Shader 14 bind to kernel 1 '_Z13conv2d_kernelPfS_S_ii'
GPGPU-Sim uArch: Shader 15 bind to kernel 1 '_Z13conv2d_kernelPfS_S_ii'
GPGPU-Sim uArch: Shader 16 bind to kernel 1 '_Z13conv2d_kernelPfS_S_ii'
GPGPU-Sim uArch: Shader 17 bind to kernel 1 '_Z13conv2d_kernelPfS_S_ii'
GPGPU-Sim uArch: Shader 18 bind to kernel 1 '_Z13conv2d_kernelPfS_S_ii'
GPGPU-Sim uArch: Shader 19 bind to kernel 1 '_Z13conv2d_kernelPfS_S_ii'
GPGPU-Sim uArch: Shader 20 bind to kernel 1 '_Z13conv2d_kernelPfS_S_ii'
GPGPU-Sim uArch: Shader 21 bind to kernel 1 '_Z13conv2d_kernelPfS_S_ii'
GPGPU-Sim uArch: Shader 22 bind to kernel 1 '_Z13conv2d_kernelPfS_S_ii'
GPGPU-Sim uArch: Shader 23 bind to kernel 1 '_Z13conv2d_kernelPfS_S_ii'
GPGPU-Sim uArch: Shader 24 bind to kernel 1 '_Z13conv2d_kernelPfS_S_ii'
GPGPU-Sim uArch: Shader 25 bind to kernel 1 '_Z13conv2d_kernelPfS_S_ii'
GPGPU-Sim uArch: Shader 26 bind to kernel 1 '_Z13conv2d_kernelPfS_S_ii'
GPGPU-Sim uArch: Shader 27 bind to kernel 1 '_Z13conv2d_kernelPfS_S_ii'
GPGPU-Sim uArch: Shader 28 bind to kernel 1 '_Z13conv2d_kernelPfS_S_ii'
GPGPU-Sim uArch: Shader 29 bind to kernel 1 '_Z13conv2d_kernelPfS_S_ii'
GPGPU-Sim uArch: Shader 30 bind to kernel 1 '_Z13conv2d_kernelPfS_S_ii'
GPGPU-Sim uArch: Shader 31 bind to kernel 1 '_Z13conv2d_kernelPfS_S_ii'
GPGPU-Sim uArch: Shader 32 bind to kernel 1 '_Z13conv2d_kernelPfS_S_ii'
GPGPU-Sim uArch: Shader 33 bind to kernel 1 '_Z13conv2d_kernelPfS_S_ii'
GPGPU-Sim uArch: Shader 34 bind to kernel 1 '_Z13conv2d_kernelPfS_S_ii'
GPGPU-Sim uArch: Shader 35 bind to kernel 1 '_Z13conv2d_kernelPfS_S_ii'
GPGPU-Sim uArch: Shader 36 bind to kernel 1 '_Z13conv2d_kernelPfS_S_ii'
GPGPU-Sim uArch: Shader 37 bind to kernel 1 '_Z13conv2d_kernelPfS_S_ii'
GPGPU-Sim uArch: Shader 38 bind to kernel 1 '_Z13conv2d_kernelPfS_S_ii'
GPGPU-Sim uArch: Shader 39 bind to kernel 1 '_Z13conv2d_kernelPfS_S_ii'
GPGPU-Sim uArch: Shader 40 bind to kernel 1 '_Z13conv2d_kernelPfS_S_ii'
GPGPU-Sim uArch: Shader 41 bind to kernel 1 '_Z13conv2d_kernelPfS_S_ii'
GPGPU-Sim uArch: Shader 42 bind to kernel 1 '_Z13conv2d_kernelPfS_S_ii'
GPGPU-Sim uArch: Shader 43 bind to kernel 1 '_Z13conv2d_kernelPfS_S_ii'
GPGPU-Sim uArch: Shader 44 bind to kernel 1 '_Z13conv2d_kernelPfS_S_ii'
GPGPU-Sim uArch: Shader 45 bind to kernel 1 '_Z13conv2d_kernelPfS_S_ii'
GPGPU-Sim uArch: Shader 46 bind to kernel 1 '_Z13conv2d_kernelPfS_S_ii'
GPGPU-Sim uArch: Shader 47 bind to kernel 1 '_Z13conv2d_kernelPfS_S_ii'
GPGPU-Sim uArch: Shader 48 bind to kernel 1 '_Z13conv2d_kernelPfS_S_ii'
GPGPU-Sim uArch: Shader 49 bind to kernel 1 '_Z13conv2d_kernelPfS_S_ii'
GPGPU-Sim uArch: Shader 50 bind to kernel 1 '_Z13conv2d_kernelPfS_S_ii'
GPGPU-Sim uArch: Shader 51 bind to kernel 1 '_Z13conv2d_kernelPfS_S_ii'
GPGPU-Sim uArch: Shader 52 bind to kernel 1 '_Z13conv2d_kernelPfS_S_ii'
GPGPU-Sim uArch: Shader 53 bind to kernel 1 '_Z13conv2d_kernelPfS_S_ii'
GPGPU-Sim uArch: Shader 54 bind to kernel 1 '_Z13conv2d_kernelPfS_S_ii'
GPGPU-Sim uArch: Shader 55 bind to kernel 1 '_Z13conv2d_kernelPfS_S_ii'
GPGPU-Sim uArch: Shader 56 bind to kernel 1 '_Z13conv2d_kernelPfS_S_ii'
GPGPU-Sim uArch: Shader 57 bind to kernel 1 '_Z13conv2d_kernelPfS_S_ii'
GPGPU-Sim uArch: Shader 58 bind to kernel 1 '_Z13conv2d_kernelPfS_S_ii'
GPGPU-Sim uArch: Shader 59 bind to kernel 1 '_Z13conv2d_kernelPfS_S_ii'
GPGPU-Sim uArch: Shader 60 bind to kernel 1 '_Z13conv2d_kernelPfS_S_ii'
GPGPU-Sim uArch: Shader 61 bind to kernel 1 '_Z13conv2d_kernelPfS_S_ii'
GPGPU-Sim uArch: Shader 62 bind to kernel 1 '_Z13conv2d_kernelPfS_S_ii'
GPGPU-Sim uArch: Shader 63 bind to kernel 1 '_Z13conv2d_kernelPfS_S_ii'
GPGPU-Sim uArch: Shader 64 bind to kernel 1 '_Z13conv2d_kernelPfS_S_ii'
GPGPU-Sim uArch: Shader 65 bind to kernel 1 '_Z13conv2d_kernelPfS_S_ii'
GPGPU-Sim uArch: Shader 66 bind to kernel 1 '_Z13conv2d_kernelPfS_S_ii'
GPGPU-Sim uArch: Shader 67 bind to kernel 1 '_Z13conv2d_kernelPfS_S_ii'
GPGPU-Sim uArch: Shader 68 bind to kernel 1 '_Z13conv2d_kernelPfS_S_ii'
GPGPU-Sim uArch: Shader 69 bind to kernel 1 '_Z13conv2d_kernelPfS_S_ii'
GPGPU-Sim uArch: Shader 70 bind to kernel 1 '_Z13conv2d_kernelPfS_S_ii'
GPGPU-Sim uArch: Shader 71 bind to kernel 1 '_Z13conv2d_kernelPfS_S_ii'
GPGPU-Sim uArch: Shader 72 bind to kernel 1 '_Z13conv2d_kernelPfS_S_ii'
GPGPU-Sim uArch: Shader 73 bind to kernel 1 '_Z13conv2d_kernelPfS_S_ii'
GPGPU-Sim uArch: Shader 74 bind to kernel 1 '_Z13conv2d_kernelPfS_S_ii'
GPGPU-Sim uArch: Shader 75 bind to kernel 1 '_Z13conv2d_kernelPfS_S_ii'
GPGPU-Sim uArch: Shader 76 bind to kernel 1 '_Z13conv2d_kernelPfS_S_ii'
GPGPU-Sim uArch: Shader 77 bind to kernel 1 '_Z13conv2d_kernelPfS_S_ii'
GPGPU-Sim uArch: Shader 78 bind to kernel 1 '_Z13conv2d_kernelPfS_S_ii'
GPGPU-Sim uArch: Shader 79 bind to kernel 1 '_Z13conv2d_kernelPfS_S_ii'
Destroy streams for kernel 1: size 0
kernel_name = _Z13conv2d_kernelPfS_S_ii 
kernel_launch_uid = 1 
gpu_sim_cycle = 15461
gpu_sim_insn = 18612224
gpu_ipc =    1203.8176
gpu_tot_sim_cycle = 15461
gpu_tot_sim_insn = 18612224
gpu_tot_ipc =    1203.8176
gpu_tot_issued_cta = 4096
gpu_occupancy = 42.0044% 
gpu_tot_occupancy = 42.0044% 
max_total_param_size = 0
gpu_stall_dramfull = 0
gpu_stall_icnt2sh    = 0
partiton_level_parallism =       4.2260
partiton_level_parallism_total  =       4.2260
partiton_level_parallism_util =       7.8371
partiton_level_parallism_util_total  =       7.8371
L2_BW  =     153.0822 GB/Sec
L2_BW_total  =     153.0822 GB/Sec
gpu_total_sim_rate=315461

========= Core cache stats =========
L1I_cache:
	L1I_total_cache_accesses = 0
	L1I_total_cache_misses = 0
	L1I_total_cache_pending_hits = 0
	L1I_total_cache_reservation_fails = 0
L1D_cache:
	L1D_cache_core[0]: Access = 7950, Miss = 828, Miss_rate = 0.104, Pending_hits = 0, Reservation_fails = 0
	L1D_cache_core[1]: Access = 8109, Miss = 849, Miss_rate = 0.105, Pending_hits = 0, Reservation_fails = 0
	L1D_cache_core[2]: Access = 8268, Miss = 865, Miss_rate = 0.105, Pending_hits = 0, Reservation_fails = 0
	L1D_cache_core[3]: Access = 8427, Miss = 883, Miss_rate = 0.105, Pending_hits = 0, Reservation_fails = 0
	L1D_cache_core[4]: Access = 8268, Miss = 865, Miss_rate = 0.105, Pending_hits = 0, Reservation_fails = 0
	L1D_cache_core[5]: Access = 8268, Miss = 862, Miss_rate = 0.104, Pending_hits = 0, Reservation_fails = 0
	L1D_cache_core[6]: Access = 8427, Miss = 880, Miss_rate = 0.104, Pending_hits = 0, Reservation_fails = 0
	L1D_cache_core[7]: Access = 7791, Miss = 819, Miss_rate = 0.105, Pending_hits = 0, Reservation_fails = 0
	L1D_cache_core[8]: Access = 8745, Miss = 906, Miss_rate = 0.104, Pending_hits = 0, Reservation_fails = 0
	L1D_cache_core[9]: Access = 8109, Miss = 857, Miss_rate = 0.106, Pending_hits = 0, Reservation_fails = 0
	L1D_cache_core[10]: Access = 8109, Miss = 847, Miss_rate = 0.104, Pending_hits = 0, Reservation_fails = 0
	L1D_cache_core[11]: Access = 8268, Miss = 865, Miss_rate = 0.105, Pending_hits = 0, Reservation_fails = 0
	L1D_cache_core[12]: Access = 8268, Miss = 866, Miss_rate = 0.105, Pending_hits = 0, Reservation_fails = 0
	L1D_cache_core[13]: Access = 8268, Miss = 868, Miss_rate = 0.105, Pending_hits = 0, Reservation_fails = 0
	L1D_cache_core[14]: Access = 7950, Miss = 832, Miss_rate = 0.105, Pending_hits = 0, Reservation_fails = 0
	L1D_cache_core[15]: Access = 8268, Miss = 863, Miss_rate = 0.104, Pending_hits = 0, Reservation_fails = 0
	L1D_cache_core[16]: Access = 8268, Miss = 871, Miss_rate = 0.105, Pending_hits = 0, Reservation_fails = 0
	L1D_cache_core[17]: Access = 7950, Miss = 833, Miss_rate = 0.105, Pending_hits = 0, Reservation_fails = 0
	L1D_cache_core[18]: Access = 8109, Miss = 844, Miss_rate = 0.104, Pending_hits = 0, Reservation_fails = 0
	L1D_cache_core[19]: Access = 8427, Miss = 880, Miss_rate = 0.104, Pending_hits = 0, Reservation_fails = 0
	L1D_cache_core[20]: Access = 8586, Miss = 893, Miss_rate = 0.104, Pending_hits = 0, Reservation_fails = 0
	L1D_cache_core[21]: Access = 8427, Miss = 881, Miss_rate = 0.105, Pending_hits = 0, Reservation_fails = 0
	L1D_cache_core[22]: Access = 8268, Miss = 870, Miss_rate = 0.105, Pending_hits = 0, Reservation_fails = 0
	L1D_cache_core[23]: Access = 8109, Miss = 860, Miss_rate = 0.106, Pending_hits = 0, Reservation_fails = 0
	L1D_cache_core[24]: Access = 8427, Miss = 880, Miss_rate = 0.104, Pending_hits = 0, Reservation_fails = 0
	L1D_cache_core[25]: Access = 8268, Miss = 868, Miss_rate = 0.105, Pending_hits = 0, Reservation_fails = 0
	L1D_cache_core[26]: Access = 8109, Miss = 853, Miss_rate = 0.105, Pending_hits = 0, Reservation_fails = 0
	L1D_cache_core[27]: Access = 7950, Miss = 837, Miss_rate = 0.105, Pending_hits = 0, Reservation_fails = 0
	L1D_cache_core[28]: Access = 8109, Miss = 848, Miss_rate = 0.105, Pending_hits = 0, Reservation_fails = 0
	L1D_cache_core[29]: Access = 8427, Miss = 889, Miss_rate = 0.105, Pending_hits = 0, Reservation_fails = 0
	L1D_cache_core[30]: Access = 8268, Miss = 865, Miss_rate = 0.105, Pending_hits = 0, Reservation_fails = 0
	L1D_cache_core[31]: Access = 8268, Miss = 873, Miss_rate = 0.106, Pending_hits = 0, Reservation_fails = 0
	L1D_cache_core[32]: Access = 7791, Miss = 820, Miss_rate = 0.105, Pending_hits = 0, Reservation_fails = 0
	L1D_cache_core[33]: Access = 8268, Miss = 870, Miss_rate = 0.105, Pending_hits = 0, Reservation_fails = 0
	L1D_cache_core[34]: Access = 7950, Miss = 843, Miss_rate = 0.106, Pending_hits = 0, Reservation_fails = 0
	L1D_cache_core[35]: Access = 7950, Miss = 837, Miss_rate = 0.105, Pending_hits = 0, Reservation_fails = 0
	L1D_cache_core[36]: Access = 8109, Miss = 855, Miss_rate = 0.105, Pending_hits = 0, Reservation_fails = 0
	L1D_cache_core[37]: Access = 8427, Miss = 888, Miss_rate = 0.105, Pending_hits = 0, Reservation_fails = 0
	L1D_cache_core[38]: Access = 8268, Miss = 866, Miss_rate = 0.105, Pending_hits = 0, Reservation_fails = 0
	L1D_cache_core[39]: Access = 8109, Miss = 850, Miss_rate = 0.105, Pending_hits = 0, Reservation_fails = 0
	L1D_cache_core[40]: Access = 8109, Miss = 849, Miss_rate = 0.105, Pending_hits = 0, Reservation_fails = 0
	L1D_cache_core[41]: Access = 8109, Miss = 853, Miss_rate = 0.105, Pending_hits = 0, Reservation_fails = 0
	L1D_cache_core[42]: Access = 7791, Miss = 820, Miss_rate = 0.105, Pending_hits = 0, Reservation_fails = 0
	L1D_cache_core[43]: Access = 8427, Miss = 886, Miss_rate = 0.105, Pending_hits = 0, Reservation_fails = 0
	L1D_cache_core[44]: Access = 8109, Miss = 853, Miss_rate = 0.105, Pending_hits = 0, Reservation_fails = 0
	L1D_cache_core[45]: Access = 8427, Miss = 890, Miss_rate = 0.106, Pending_hits = 0, Reservation_fails = 0
	L1D_cache_core[46]: Access = 8268, Miss = 877, Miss_rate = 0.106, Pending_hits = 0, Reservation_fails = 0
	L1D_cache_core[47]: Access = 8268, Miss = 880, Miss_rate = 0.106, Pending_hits = 0, Reservation_fails = 0
	L1D_cache_core[48]: Access = 8268, Miss = 878, Miss_rate = 0.106, Pending_hits = 0, Reservation_fails = 0
	L1D_cache_core[49]: Access = 8268, Miss = 870, Miss_rate = 0.105, Pending_hits = 0, Reservation_fails = 0
	L1D_cache_core[50]: Access = 8109, Miss = 856, Miss_rate = 0.106, Pending_hits = 0, Reservation_fails = 0
	L1D_cache_core[51]: Access = 8109, Miss = 856, Miss_rate = 0.106, Pending_hits = 0, Reservation_fails = 0
	L1D_cache_core[52]: Access = 8268, Miss = 867, Miss_rate = 0.105, Pending_hits = 0, Reservation_fails = 0
	L1D_cache_core[53]: Access = 8268, Miss = 865, Miss_rate = 0.105, Pending_hits = 0, Reservation_fails = 0
	L1D_cache_core[54]: Access = 8268, Miss = 874, Miss_rate = 0.106, Pending_hits = 0, Reservation_fails = 0
	L1D_cache_core[55]: Access = 8268, Miss = 866, Miss_rate = 0.105, Pending_hits = 0, Reservation_fails = 0
	L1D_cache_core[56]: Access = 8268, Miss = 868, Miss_rate = 0.105, Pending_hits = 0, Reservation_fails = 0
	L1D_cache_core[57]: Access = 7950, Miss = 845, Miss_rate = 0.106, Pending_hits = 0, Reservation_fails = 0
	L1D_cache_core[58]: Access = 8268, Miss = 867, Miss_rate = 0.105, Pending_hits = 0, Reservation_fails = 0
	L1D_cache_core[59]: Access = 8109, Miss = 855, Miss_rate = 0.105, Pending_hits = 0, Reservation_fails = 0
	L1D_cache_core[60]: Access = 8109, Miss = 857, Miss_rate = 0.106, Pending_hits = 0, Reservation_fails = 0
	L1D_cache_core[61]: Access = 7950, Miss = 844, Miss_rate = 0.106, Pending_hits = 0, Reservation_fails = 0
	L1D_cache_core[62]: Access = 8109, Miss = 850, Miss_rate = 0.105, Pending_hits = 0, Reservation_fails = 0
	L1D_cache_core[63]: Access = 8109, Miss = 851, Miss_rate = 0.105, Pending_hits = 0, Reservation_fails = 0
	L1D_cache_core[64]: Access = 7632, Miss = 809, Miss_rate = 0.106, Pending_hits = 0, Reservation_fails = 0
	L1D_cache_core[65]: Access = 7791, Miss = 828, Miss_rate = 0.106, Pending_hits = 0, Reservation_fails = 0
	L1D_cache_core[66]: Access = 7950, Miss = 844, Miss_rate = 0.106, Pending_hits = 0, Reservation_fails = 0
	L1D_cache_core[67]: Access = 8109, Miss = 859, Miss_rate = 0.106, Pending_hits = 0, Reservation_fails = 0
	L1D_cache_core[68]: Access = 8268, Miss = 874, Miss_rate = 0.106, Pending_hits = 0, Reservation_fails = 0
	L1D_cache_core[69]: Access = 7632, Miss = 810, Miss_rate = 0.106, Pending_hits = 0, Reservation_fails = 0
	L1D_cache_core[70]: Access = 8109, Miss = 855, Miss_rate = 0.105, Pending_hits = 0, Reservation_fails = 0
	L1D_cache_core[71]: Access = 7632, Miss = 810, Miss_rate = 0.106, Pending_hits = 0, Reservation_fails = 0
	L1D_cache_core[72]: Access = 7791, Miss = 828, Miss_rate = 0.106, Pending_hits = 0, Reservation_fails = 0
	L1D_cache_core[73]: Access = 8268, Miss = 875, Miss_rate = 0.106, Pending_hits = 0, Reservation_fails = 0
	L1D_cache_core[74]: Access = 8109, Miss = 861, Miss_rate = 0.106, Pending_hits = 0, Reservation_fails = 0
	L1D_cache_core[75]: Access = 8268, Miss = 883, Miss_rate = 0.107, Pending_hits = 0, Reservation_fails = 0
	L1D_cache_core[76]: Access = 7791, Miss = 829, Miss_rate = 0.106, Pending_hits = 0, Reservation_fails = 0
	L1D_cache_core[77]: Access = 7473, Miss = 794, Miss_rate = 0.106, Pending_hits = 0, Reservation_fails = 0
	L1D_cache_core[78]: Access = 7791, Miss = 828, Miss_rate = 0.106, Pending_hits = 0, Reservation_fails = 0
	L1D_cache_core[79]: Access = 8109, Miss = 856, Miss_rate = 0.106, Pending_hits = 0, Reservation_fails = 0
	L1D_total_cache_accesses = 651264
	L1D_total_cache_misses = 68549
	L1D_total_cache_miss_rate = 0.1053
	L1D_total_cache_pending_hits = 0
	L1D_total_cache_reservation_fails = 0
	L1D_cache_data_port_util = 0.741
	L1D_cache_fill_port_util = 0.062
L1C_cache:
	L1C_total_cache_accesses = 0
	L1C_total_cache_misses = 0
	L1C_total_cache_pending_hits = 0
	L1C_total_cache_reservation_fails = 0
L1T_cache:
	L1T_total_cache_accesses = 0
	L1T_total_cache_misses = 0
	L1T_total_cache_pending_hits = 0
	L1T_total_cache_reservation_fails = 0

Total_core_cache_stats:
	Total_core_cache_stats_breakdown[GLOBAL_ACC_R][HIT] = 582715
	Total_core_cache_stats_breakdown[GLOBAL_ACC_R][HIT_RESERVED] = 0
	Total_core_cache_stats_breakdown[GLOBAL_ACC_R][MISS] = 26539
	Total_core_cache_stats_breakdown[GLOBAL_ACC_R][RESERVATION_FAIL] = 0
	Total_core_cache_stats_breakdown[GLOBAL_ACC_R][SECTOR_MISS] = 25626
	Total_core_cache_stats_breakdown[LOCAL_ACC_R][HIT] = 0
	Total_core_cache_stats_breakdown[LOCAL_ACC_R][HIT_RESERVED] = 0
	Total_core_cache_stats_breakdown[LOCAL_ACC_R][MISS] = 0
	Total_core_cache_stats_breakdown[LOCAL_ACC_R][RESERVATION_FAIL] = 0
	Total_core_cache_stats_breakdown[LOCAL_ACC_R][SECTOR_MISS] = 0
	Total_core_cache_stats_breakdown[CONST_ACC_R][HIT] = 0
	Total_core_cache_stats_breakdown[CONST_ACC_R][HIT_RESERVED] = 0
	Total_core_cache_stats_breakdown[CONST_ACC_R][MISS] = 0
	Total_core_cache_stats_breakdown[CONST_ACC_R][RESERVATION_FAIL] = 0
	Total_core_cache_stats_breakdown[CONST_ACC_R][SECTOR_MISS] = 0
	Total_core_cache_stats_breakdown[TEXTURE_ACC_R][HIT] = 0
	Total_core_cache_stats_breakdown[TEXTURE_ACC_R][HIT_RESERVED] = 0
	Total_core_cache_stats_breakdown[TEXTURE_ACC_R][MISS] = 0
	Total_core_cache_stats_breakdown[TEXTURE_ACC_R][RESERVATION_FAIL] = 0
	Total_core_cache_stats_breakdown[TEXTURE_ACC_R][SECTOR_MISS] = 0
	Total_core_cache_stats_breakdown[GLOBAL_ACC_W][HIT] = 0
	Total_core_cache_stats_breakdown[GLOBAL_ACC_W][HIT_RESERVED] = 0
	Total_core_cache_stats_breakdown[GLOBAL_ACC_W][MISS] = 16384
	Total_core_cache_stats_breakdown[GLOBAL_ACC_W][RESERVATION_FAIL] = 0
	Total_core_cache_stats_breakdown[GLOBAL_ACC_W][SECTOR_MISS] = 0
	Total_core_cache_stats_breakdown[LOCAL_ACC_W][HIT] = 0
	Total_core_cache_stats_breakdown[LOCAL_ACC_W][HIT_RESERVED] = 0
	Total_core_cache_stats_breakdown[LOCAL_ACC_W][MISS] = 0
	Total_core_cache_stats_breakdown[LOCAL_ACC_W][RESERVATION_FAIL] = 0
	Total_core_cache_stats_breakdown[LOCAL_ACC_W][SECTOR_MISS] = 0
	Total_core_cache_stats_breakdown[L1_WRBK_ACC][HIT] = 0
	Total_core_cache_stats_breakdown[L1_WRBK_ACC][HIT_RESERVED] = 0
	Total_core_cache_stats_breakdown[L1_WRBK_ACC][MISS] = 0
	Total_core_cache_stats_breakdown[L1_WRBK_ACC][RESERVATION_FAIL] = 0
	Total_core_cache_stats_breakdown[L1_WRBK_ACC][SECTOR_MISS] = 0
	Total_core_cache_stats_breakdown[L2_WRBK_ACC][HIT] = 0
	Total_core_cache_stats_breakdown[L2_WRBK_ACC][HIT_RESERVED] = 0
	Total_core_cache_stats_breakdown[L2_WRBK_ACC][MISS] = 0
	Total_core_cache_stats_breakdown[L2_WRBK_ACC][RESERVATION_FAIL] = 0
	Total_core_cache_stats_breakdown[L2_WRBK_ACC][SECTOR_MISS] = 0
	Total_core_cache_stats_breakdown[INST_ACC_R][HIT] = 0
	Total_core_cache_stats_breakdown[INST_ACC_R][HIT_RESERVED] = 0
	Total_core_cache_stats_breakdown[INST_ACC_R][MISS] = 0
	Total_core_cache_stats_breakdown[INST_ACC_R][RESERVATION_FAIL] = 0
	Total_core_cache_stats_breakdown[INST_ACC_R][SECTOR_MISS] = 0
	Total_core_cache_stats_breakdown[L1_WR_ALLOC_R][HIT] = 0
	Total_core_cache_stats_breakdown[L1_WR_ALLOC_R][HIT_RESERVED] = 0
	Total_core_cache_stats_breakdown[L1_WR_ALLOC_R][MISS] = 0
	Total_core_cache_stats_breakdown[L1_WR_ALLOC_R][RESERVATION_FAIL] = 0
	Total_core_cache_stats_breakdown[L1_WR_ALLOC_R][SECTOR_MISS] = 0
	Total_core_cache_stats_breakdown[L2_WR_ALLOC_R][HIT] = 0
	Total_core_cache_stats_breakdown[L2_WR_ALLOC_R][HIT_RESERVED] = 0
	Total_core_cache_stats_breakdown[L2_WR_ALLOC_R][MISS] = 0
	Total_core_cache_stats_breakdown[L2_WR_ALLOC_R][RESERVATION_FAIL] = 0
	Total_core_cache_stats_breakdown[L2_WR_ALLOC_R][SECTOR_MISS] = 0
	Total_core_cache_stats_breakdown[GLOBAL_ACC_R][TOTAL_ACCESS] = 634880
	Total_core_cache_stats_breakdown[GLOBAL_ACC_W][TOTAL_ACCESS] = 16384

Total_core_cache_fail_stats:
ctas_completed 4096, Shader 0 warp_id issue ditsribution:
warp_id:
0, 1, 2, 3, 4, 5, 6, 7, 8, 9, 10, 11, 12, 13, 14, 15, 16, 17, 18, 19, 20, 21, 22, 23, 24, 25, 26, 27, 28, 29, 30, 31, 
distro:
602, 602, 602, 602, 602, 602, 602, 602, 602, 602, 602, 602, 602, 602, 602, 602, 301, 602, 301, 602, 301, 301, 301, 301, 301, 301, 301, 301, 301, 301, 301, 301, 
gpgpu_n_tot_thrd_icount = 39452672
gpgpu_n_tot_w_icount = 1232896
gpgpu_n_stall_shd_mem = 442368
gpgpu_n_mem_read_local = 0
gpgpu_n_mem_write_local = 0
gpgpu_n_mem_read_global = 48954
gpgpu_n_mem_write_global = 16384
gpgpu_n_mem_texture = 0
gpgpu_n_mem_const = 0
gpgpu_n_load_insn  = 3276800
gpgpu_n_store_insn = 65536
gpgpu_n_shmem_insn = 0
gpgpu_n_sstarr_insn = 0
gpgpu_n_tex_insn = 0
gpgpu_n_const_mem_insn = 0
gpgpu_n_param_mem_insn = 327680
gpgpu_n_shmem_bkconflict = 0
gpgpu_n_cache_bkconflict = 0
gpgpu_n_intrawarp_mshr_merge = 0
gpgpu_n_cmem_portconflict = 0
gpgpu_stall_shd_mem[c_mem][resource_stall] = 0
gpgpu_stall_shd_mem[s_mem][bk_conf] = 0
gpgpu_stall_shd_mem[gl_mem][resource_stall] = 442368
gpgpu_stall_shd_mem[gl_mem][coal_stall] = 0
gpgpu_stall_shd_mem[gl_mem][data_port_stall] = 0
gpu_reg_bank_conflict_stalls = 0
Warp Occupancy Distribution:
Stall:923101	W0_Idle:82407	W0_Scoreboard:907784	W1:0	W2:0	W3:0	W4:0	W5:0	W6:0	W7:0	W8:0	W9:0	W10:0	W11:0	W12:0	W13:0	W14:0	W15:0	W16:1232896	W17:0	W18:0	W19:0	W20:0	W21:0	W22:0	W23:0	W24:0	W25:0	W26:0	W27:0	W28:0	W29:0	W30:0	W31:0	W32:0
single_issue_nums: WS0:308826	WS1:307321	WS2:307622	WS3:309127	
dual_issue_nums: WS0:0	WS1:0	WS2:0	WS3:0	
traffic_breakdown_coretomem[GLOBAL_ACC_R] = 391632 {8:48954,}
traffic_breakdown_coretomem[GLOBAL_ACC_W] = 655360 {40:16384,}
traffic_breakdown_memtocore[GLOBAL_ACC_R] = 1958160 {40:48954,}
traffic_breakdown_memtocore[GLOBAL_ACC_W] = 131072 {8:16384,}
maxmflatency = 335 
max_icnt2mem_latency = 148 
maxmrqlatency = 0 
max_icnt2sh_latency = 56 
averagemflatency = 191 
avg_icnt2mem_latency = 25 
avg_icnt2sh_latency = 3 
mrq_lat_table:0 	0 	0 	0 	0 	0 	0 	0 	0 	0 	0 	0 	0 	0 	0 	0 	0 	0 	0 	0 	0 	0 	0 	0 	0 	0 	0 	0 	0 	0 	0 	0 	
dq_lat_table:0 	0 	0 	0 	0 	0 	0 	0 	0 	0 	0 	0 	0 	0 	0 	0 	0 	0 	0 	0 	0 	0 	0 	0 	0 	0 	0 	0 	0 	0 	0 	0 	
mf_lat_table:0 	0 	0 	0 	0 	0 	0 	64255 	1083 	0 	0 	0 	0 	0 	0 	0 	0 	0 	0 	0 	0 	0 	0 	0 	0 	0 	0 	0 	0 	0 	0 	0 	
icnt2mem_lat_table:0 	0 	0 	0 	61527 	1994 	1745 	72 	0 	0 	0 	0 	0 	0 	0 	0 	0 	0 	0 	0 	0 	0 	0 	0 	
icnt2sh_lat_table:0 	58095 	3452 	1902 	1491 	398 	0 	0 	0 	0 	0 	0 	0 	0 	0 	0 	0 	0 	0 	0 	0 	0 	0 	0 	
mf_lat_pw_table:0 	0 	0 	0 	0 	0 	0 	19 	0 	0 	0 	0 	0 	0 	0 	0 	0 	0 	0 	0 	0 	0 	0 	0 	0 	0 	0 	0 	0 	0 	0 	0 	
maximum concurrent accesses to same row:
dram[0]:         0         0         0         0         0         0         0         0         0         0         0         0         0         0         0         0 
dram[1]:         0         0         0         0         0         0         0         0         0         0         0         0         0         0         0         0 
dram[2]:         0         0         0         0         0         0         0         0         0         0         0         0         0         0         0         0 
dram[3]:         0         0         0         0         0         0         0         0         0         0         0         0         0         0         0         0 
dram[4]:         0         0         0         0         0         0         0         0         0         0         0         0         0         0         0         0 
dram[5]:         0         0         0         0         0         0         0         0         0         0         0         0         0         0         0         0 
dram[6]:         0         0         0         0         0         0         0         0         0         0         0         0         0         0         0         0 
dram[7]:         0         0         0         0         0         0         0         0         0         0         0         0         0         0         0         0 
dram[8]:         0         0         0         0         0         0         0         0         0         0         0         0         0         0         0         0 
dram[9]:         0         0         0         0         0         0         0         0         0         0         0         0         0         0         0         0 
dram[10]:         0         0         0         0         0         0         0         0         0         0         0         0         0         0         0         0 
dram[11]:         0         0         0         0         0         0         0         0         0         0         0         0         0         0         0         0 
dram[12]:         0         0         0         0         0         0         0         0         0         0         0         0         0         0         0         0 
dram[13]:         0         0         0         0         0         0         0         0         0         0         0         0         0         0         0         0 
dram[14]:         0         0         0         0         0         0         0         0         0         0         0         0         0         0         0         0 
dram[15]:         0         0         0         0         0         0         0         0         0         0         0         0         0         0         0         0 
dram[16]:         0         0         0         0         0         0         0         0         0         0         0         0         0         0         0         0 
dram[17]:         0         0         0         0         0         0         0         0         0         0         0         0         0         0         0         0 
dram[18]:         0         0         0         0         0         0         0         0         0         0         0         0         0         0         0         0 
dram[19]:         0         0         0         0         0         0         0         0         0         0         0         0         0         0         0         0 
dram[20]:         0         0         0         0         0         0         0         0         0         0         0         0         0         0         0         0 
dram[21]:         0         0         0         0         0         0         0         0         0         0         0         0         0         0         0         0 
dram[22]:         0         0         0         0         0         0         0         0         0         0         0         0         0         0         0         0 
dram[23]:         0         0         0         0         0         0         0         0         0         0         0         0         0         0         0         0 
dram[24]:         0         0         0         0         0         0         0         0         0         0         0         0         0         0         0         0 
dram[25]:         0         0         0         0         0         0         0         0         0         0         0         0         0         0         0         0 
dram[26]:         0         0         0         0         0         0         0         0         0         0         0         0         0         0         0         0 
dram[27]:         0         0         0         0         0         0         0         0         0         0         0         0         0         0         0         0 
dram[28]:         0         0         0         0         0         0         0         0         0         0         0         0         0         0         0         0 
dram[29]:         0         0         0         0         0         0         0         0         0         0         0         0         0         0         0         0 
dram[30]:         0         0         0         0         0         0         0         0         0         0         0         0         0         0         0         0 
dram[31]:         0         0         0         0         0         0         0         0         0         0         0         0         0         0         0         0 
maximum service time to same row:
dram[0]:         0         0         0         0         0         0         0         0         0         0         0         0         0         0         0         0 
dram[1]:         0         0         0         0         0         0         0         0         0         0         0         0         0         0         0         0 
dram[2]:         0         0         0         0         0         0         0         0         0         0         0         0         0         0         0         0 
dram[3]:         0         0         0         0         0         0         0         0         0         0         0         0         0         0         0         0 
dram[4]:         0         0         0         0         0         0         0         0         0         0         0         0         0         0         0         0 
dram[5]:         0         0         0         0         0         0         0         0         0         0         0         0         0         0         0         0 
dram[6]:         0         0         0         0         0         0         0         0         0         0         0         0         0         0         0         0 
dram[7]:         0         0         0         0         0         0         0         0         0         0         0         0         0         0         0         0 
dram[8]:         0         0         0         0         0         0         0         0         0         0         0         0         0         0         0         0 
dram[9]:         0         0         0         0         0         0         0         0         0         0         0         0         0         0         0         0 
dram[10]:         0         0         0         0         0         0         0         0         0         0         0         0         0         0         0         0 
dram[11]:         0         0         0         0         0         0         0         0         0         0         0         0         0         0         0         0 
dram[12]:         0         0         0         0         0         0         0         0         0         0         0         0         0         0         0         0 
dram[13]:         0         0         0         0         0         0         0         0         0         0         0         0         0         0         0         0 
dram[14]:         0         0         0         0         0         0         0         0         0         0         0         0         0         0         0         0 
dram[15]:         0         0         0         0         0         0         0         0         0         0         0         0         0         0         0         0 
dram[16]:         0         0         0         0         0         0         0         0         0         0         0         0         0         0         0         0 
dram[17]:         0         0         0         0         0         0         0         0         0         0         0         0         0         0         0         0 
dram[18]:         0         0         0         0         0         0         0         0         0         0         0         0         0         0         0         0 
dram[19]:         0         0         0         0         0         0         0         0         0         0         0         0         0         0         0         0 
dram[20]:         0         0         0         0         0         0         0         0         0         0         0         0         0         0         0         0 
dram[21]:         0         0         0         0         0         0         0         0         0         0         0         0         0         0         0         0 
dram[22]:         0         0         0         0         0         0         0         0         0         0         0         0         0         0         0         0 
dram[23]:         0         0         0         0         0         0         0         0         0         0         0         0         0         0         0         0 
dram[24]:         0         0         0         0         0         0         0         0         0         0         0         0         0         0         0         0 
dram[25]:         0         0         0         0         0         0         0         0         0         0         0         0         0         0         0         0 
dram[26]:         0         0         0         0         0         0         0         0         0         0         0         0         0         0         0         0 
dram[27]:         0         0         0         0         0         0         0         0         0         0         0         0         0         0         0         0 
dram[28]:         0         0         0         0         0         0         0         0         0         0         0         0         0         0         0         0 
dram[29]:         0         0         0         0         0         0         0         0         0         0         0         0         0         0         0         0 
dram[30]:         0         0         0         0         0         0         0         0         0         0         0         0         0         0         0         0 
dram[31]:         0         0         0         0         0         0         0         0         0         0         0         0         0         0         0         0 
average row accesses per activate:
dram[0]:      -nan      -nan      -nan      -nan      -nan      -nan      -nan      -nan      -nan      -nan      -nan      -nan      -nan      -nan      -nan      -nan 
dram[1]:      -nan      -nan      -nan      -nan      -nan      -nan      -nan      -nan      -nan      -nan      -nan      -nan      -nan      -nan      -nan      -nan 
dram[2]:      -nan      -nan      -nan      -nan      -nan      -nan      -nan      -nan      -nan      -nan      -nan      -nan      -nan      -nan      -nan      -nan 
dram[3]:      -nan      -nan      -nan      -nan      -nan      -nan      -nan      -nan      -nan      -nan      -nan      -nan      -nan      -nan      -nan      -nan 
dram[4]:      -nan      -nan      -nan      -nan      -nan      -nan      -nan      -nan      -nan      -nan      -nan      -nan      -nan      -nan      -nan      -nan 
dram[5]:      -nan      -nan      -nan      -nan      -nan      -nan      -nan      -nan      -nan      -nan      -nan      -nan      -nan      -nan      -nan      -nan 
dram[6]:      -nan      -nan      -nan      -nan      -nan      -nan      -nan      -nan      -nan      -nan      -nan      -nan      -nan      -nan      -nan      -nan 
dram[7]:      -nan      -nan      -nan      -nan      -nan      -nan      -nan      -nan      -nan      -nan      -nan      -nan      -nan      -nan      -nan      -nan 
dram[8]:      -nan      -nan      -nan      -nan      -nan      -nan      -nan      -nan      -nan      -nan      -nan      -nan      -nan      -nan      -nan      -nan 
dram[9]:      -nan      -nan      -nan      -nan      -nan      -nan      -nan      -nan      -nan      -nan      -nan      -nan      -nan      -nan      -nan      -nan 
dram[10]:      -nan      -nan      -nan      -nan      -nan      -nan      -nan      -nan      -nan      -nan      -nan      -nan      -nan      -nan      -nan      -nan 
dram[11]:      -nan      -nan      -nan      -nan      -nan      -nan      -nan      -nan      -nan      -nan      -nan      -nan      -nan      -nan      -nan      -nan 
dram[12]:      -nan      -nan      -nan      -nan      -nan      -nan      -nan      -nan      -nan      -nan      -nan      -nan      -nan      -nan      -nan      -nan 
dram[13]:      -nan      -nan      -nan      -nan      -nan      -nan      -nan      -nan      -nan      -nan      -nan      -nan      -nan      -nan      -nan      -nan 
dram[14]:      -nan      -nan      -nan      -nan      -nan      -nan      -nan      -nan      -nan      -nan      -nan      -nan      -nan      -nan      -nan      -nan 
dram[15]:      -nan      -nan      -nan      -nan      -nan      -nan      -nan      -nan      -nan      -nan      -nan      -nan      -nan      -nan      -nan      -nan 
dram[16]:      -nan      -nan      -nan      -nan      -nan      -nan      -nan      -nan      -nan      -nan      -nan      -nan      -nan      -nan      -nan      -nan 
dram[17]:      -nan      -nan      -nan      -nan      -nan      -nan      -nan      -nan      -nan      -nan      -nan      -nan      -nan      -nan      -nan      -nan 
dram[18]:      -nan      -nan      -nan      -nan      -nan      -nan      -nan      -nan      -nan      -nan      -nan      -nan      -nan      -nan      -nan      -nan 
dram[19]:      -nan      -nan      -nan      -nan      -nan      -nan      -nan      -nan      -nan      -nan      -nan      -nan      -nan      -nan      -nan      -nan 
dram[20]:      -nan      -nan      -nan      -nan      -nan      -nan      -nan      -nan      -nan      -nan      -nan      -nan      -nan      -nan      -nan      -nan 
dram[21]:      -nan      -nan      -nan      -nan      -nan      -nan      -nan      -nan      -nan      -nan      -nan      -nan      -nan      -nan      -nan      -nan 
dram[22]:      -nan      -nan      -nan      -nan      -nan      -nan      -nan      -nan      -nan      -nan      -nan      -nan      -nan      -nan      -nan      -nan 
dram[23]:      -nan      -nan      -nan      -nan      -nan      -nan      -nan      -nan      -nan      -nan      -nan      -nan      -nan      -nan      -nan      -nan 
dram[24]:      -nan      -nan      -nan      -nan      -nan      -nan      -nan      -nan      -nan      -nan      -nan      -nan      -nan      -nan      -nan      -nan 
dram[25]:      -nan      -nan      -nan      -nan      -nan      -nan      -nan      -nan      -nan      -nan      -nan      -nan      -nan      -nan      -nan      -nan 
dram[26]:      -nan      -nan      -nan      -nan      -nan      -nan      -nan      -nan      -nan      -nan      -nan      -nan      -nan      -nan      -nan      -nan 
dram[27]:      -nan      -nan      -nan      -nan      -nan      -nan      -nan      -nan      -nan      -nan      -nan      -nan      -nan      -nan      -nan      -nan 
dram[28]:      -nan      -nan      -nan      -nan      -nan      -nan      -nan      -nan      -nan      -nan      -nan      -nan      -nan      -nan      -nan      -nan 
dram[29]:      -nan      -nan      -nan      -nan      -nan      -nan      -nan      -nan      -nan      -nan      -nan      -nan      -nan      -nan      -nan      -nan 
dram[30]:      -nan      -nan      -nan      -nan      -nan      -nan      -nan      -nan      -nan      -nan      -nan      -nan      -nan      -nan      -nan      -nan 
dram[31]:      -nan      -nan      -nan      -nan      -nan      -nan      -nan      -nan      -nan      -nan      -nan      -nan      -nan      -nan      -nan      -nan 
average row locality = 0/0 = -nan
number of total memory accesses made:
dram[0]:         0         0         0         0         0         0         0         0         0         0         0         0         0         0         0         0 
dram[1]:         0         0         0         0         0         0         0         0         0         0         0         0         0         0         0         0 
dram[2]:         0         0         0         0         0         0         0         0         0         0         0         0         0         0         0         0 
dram[3]:         0         0         0         0         0         0         0         0         0         0         0         0         0         0         0         0 
dram[4]:         0         0         0         0         0         0         0         0         0         0         0         0         0         0         0         0 
dram[5]:         0         0         0         0         0         0         0         0         0         0         0         0         0         0         0         0 
dram[6]:         0         0         0         0         0         0         0         0         0         0         0         0         0         0         0         0 
dram[7]:         0         0         0         0         0         0         0         0         0         0         0         0         0         0         0         0 
dram[8]:         0         0         0         0         0         0         0         0         0         0         0         0         0         0         0         0 
dram[9]:         0         0         0         0         0         0         0         0         0         0         0         0         0         0         0         0 
dram[10]:         0         0         0         0         0         0         0         0         0         0         0         0         0         0         0         0 
dram[11]:         0         0         0         0         0         0         0         0         0         0         0         0         0         0         0         0 
dram[12]:         0         0         0         0         0         0         0         0         0         0         0         0         0         0         0         0 
dram[13]:         0         0         0         0         0         0         0         0         0         0         0         0         0         0         0         0 
dram[14]:         0         0         0         0         0         0         0         0         0         0         0         0         0         0         0         0 
dram[15]:         0         0         0         0         0         0         0         0         0         0         0         0         0         0         0         0 
dram[16]:         0         0         0         0         0         0         0         0         0         0         0         0         0         0         0         0 
dram[17]:         0         0         0         0         0         0         0         0         0         0         0         0         0         0         0         0 
dram[18]:         0         0         0         0         0         0         0         0         0         0         0         0         0         0         0         0 
dram[19]:         0         0         0         0         0         0         0         0         0         0         0         0         0         0         0         0 
dram[20]:         0         0         0         0         0         0         0         0         0         0         0         0         0         0         0         0 
dram[21]:         0         0         0         0         0         0         0         0         0         0         0         0         0         0         0         0 
dram[22]:         0         0         0         0         0         0         0         0         0         0         0         0         0         0         0         0 
dram[23]:         0         0         0         0         0         0         0         0         0         0         0         0         0         0         0         0 
dram[24]:         0         0         0         0         0         0         0         0         0         0         0         0         0         0         0         0 
dram[25]:         0         0         0         0         0         0         0         0         0         0         0         0         0         0         0         0 
dram[26]:         0         0         0         0         0         0         0         0         0         0         0         0         0         0         0         0 
dram[27]:         0         0         0         0         0         0         0         0         0         0         0         0         0         0         0         0 
dram[28]:         0         0         0         0         0         0         0         0         0         0         0         0         0         0         0         0 
dram[29]:         0         0         0         0         0         0         0         0         0         0         0         0         0         0         0         0 
dram[30]:         0         0         0         0         0         0         0         0         0         0         0         0         0         0         0         0 
dram[31]:         0         0         0         0         0         0         0         0         0         0         0         0         0         0         0         0 
total accesses: 0
min_bank_accesses = 0!
min_chip_accesses = 0!
number of total read accesses:
dram[0]:         0         0         0         0         0         0         0         0         0         0         0         0         0         0         0         0 
dram[1]:         0         0         0         0         0         0         0         0         0         0         0         0         0         0         0         0 
dram[2]:         0         0         0         0         0         0         0         0         0         0         0         0         0         0         0         0 
dram[3]:         0         0         0         0         0         0         0         0         0         0         0         0         0         0         0         0 
dram[4]:         0         0         0         0         0         0         0         0         0         0         0         0         0         0         0         0 
dram[5]:         0         0         0         0         0         0         0         0         0         0         0         0         0         0         0         0 
dram[6]:         0         0         0         0         0         0         0         0         0         0         0         0         0         0         0         0 
dram[7]:         0         0         0         0         0         0         0         0         0         0         0         0         0         0         0         0 
dram[8]:         0         0         0         0         0         0         0         0         0         0         0         0         0         0         0         0 
dram[9]:         0         0         0         0         0         0         0         0         0         0         0         0         0         0         0         0 
dram[10]:         0         0         0         0         0         0         0         0         0         0         0         0         0         0         0         0 
dram[11]:         0         0         0         0         0         0         0         0         0         0         0         0         0         0         0         0 
dram[12]:         0         0         0         0         0         0         0         0         0         0         0         0         0         0         0         0 
dram[13]:         0         0         0         0         0         0         0         0         0         0         0         0         0         0         0         0 
dram[14]:         0         0         0         0         0         0         0         0         0         0         0         0         0         0         0         0 
dram[15]:         0         0         0         0         0         0         0         0         0         0         0         0         0         0         0         0 
dram[16]:         0         0         0         0         0         0         0         0         0         0         0         0         0         0         0         0 
dram[17]:         0         0         0         0         0         0         0         0         0         0         0         0         0         0         0         0 
dram[18]:         0         0         0         0         0         0         0         0         0         0         0         0         0         0         0         0 
dram[19]:         0         0         0         0         0         0         0         0         0         0         0         0         0         0         0         0 
dram[20]:         0         0         0         0         0         0         0         0         0         0         0         0         0         0         0         0 
dram[21]:         0         0         0         0         0         0         0         0         0         0         0         0         0         0         0         0 
dram[22]:         0         0         0         0         0         0         0         0         0         0         0         0         0         0         0         0 
dram[23]:         0         0         0         0         0         0         0         0         0         0         0         0         0         0         0         0 
dram[24]:         0         0         0         0         0         0         0         0         0         0         0         0         0         0         0         0 
dram[25]:         0         0         0         0         0         0         0         0         0         0         0         0         0         0         0         0 
dram[26]:         0         0         0         0         0         0         0         0         0         0         0         0         0         0         0         0 
dram[27]:         0         0         0         0         0         0         0         0         0         0         0         0         0         0         0         0 
dram[28]:         0         0         0         0         0         0         0         0         0         0         0         0         0         0         0         0 
dram[29]:         0         0         0         0         0         0         0         0         0         0         0         0         0         0         0         0 
dram[30]:         0         0         0         0         0         0         0         0         0         0         0         0         0         0         0         0 
dram[31]:         0         0         0         0         0         0         0         0         0         0         0         0         0         0         0         0 
total dram reads = 0
min_bank_accesses = 0!
min_chip_accesses = 0!
number of total write accesses:
dram[0]:         0         0         0         0         0         0         0         0         0         0         0         0         0         0         0         0 
dram[1]:         0         0         0         0         0         0         0         0         0         0         0         0         0         0         0         0 
dram[2]:         0         0         0         0         0         0         0         0         0         0         0         0         0         0         0         0 
dram[3]:         0         0         0         0         0         0         0         0         0         0         0         0         0         0         0         0 
dram[4]:         0         0         0         0         0         0         0         0         0         0         0         0         0         0         0         0 
dram[5]:         0         0         0         0         0         0         0         0         0         0         0         0         0         0         0         0 
dram[6]:         0         0         0         0         0         0         0         0         0         0         0         0         0         0         0         0 
[...]
-6.49983
142.312
37.9401
95.8905
154.536
-28.5569
15.1261
33.2846
-2.9261
138.789
-167.36
-87.3266
179.512
-37.7053
112.777
21.6336
40.463
31.646
100.666
2.86065
193.274
31.5136
90.1853
-50.4753
89.2821
2.56998
125.076
79.2605
43.5199
49.6949
72.3717
-36.8508
-25.1263
26.448
-242.404
17.4664
-5.61803
-61.3102
-94.6555
79.9668
-116.684
-61.332
128.544
-95.5605
110.315
-76.4531
-2.39682
60.3533
-61.8925
75.7043
14.4334
23.6001
122.628
-60.7637
17.2508
105.725
-56.5185
101.456
-128.985
-88.3485
73.626
-59.0567
100.27
18.1581
-131.087
114.625
-69.3003
-25.1886
101.51
102.134
15.714
65.1515
18.1069
22.1534
86.3632
12.7981
-37.7372
39.0974
-65.672
-4.73085
6.99374
-59.0597
-109.333
-106.592
-72.8627
59.0013
-15.214
115.613
74.76
-0.0758481
24.7406
7.23927
18.3169
115.462
-62.4636
3.56954
-112.475
71.4027
8.36885
-125.191
-73.3233
-37.0041
-5.19921
104.217
-75.5735
96.0902
95.5267
99.4351
117.097
46.3534
69.73
10.8609
56.0646
-125.165
8.89181
-188.849
-14.769
-32.2389
2.65002
-2.61103
-13.2113
5.7311
-87.0881
105.341
-56.9116
-65.077
-25.5206
-24.6463
-120.159
-2.96109
-41.2949
63.9292
142.746
-104.5
29.8053
-135.746
14.3462
107.832
-8.87936
160.099
19.7087
-74.3015
83.7138
-116.905
-69.4086
-131.541
-92.3537
111.833
14.8923
12.5582
-28.0255
-25.8887
-82.2568
-88.0835
-51.0616
32.8663
111.449
112.128
93.5153
-158.206
-9.21845
-175.873
-94.2359
-17.9319
-76.729
-30.3747
-96.5111
-53.785
-125.894
-154.361
39.2385
26.7151
-29.9108
-17.2768
140.394
5.10883
4.78929
117.17
28.4469
38.6438
79.6437
58.5886
133.209
148.356
66.8531
-63.0336
-126.937
-34.4757
-20.1102
11.2314
93.3638
-0.143083
40.9353
91.0101
-2.56974
-25.8625
45.898
-112.665
138.439
25.3775
-18.7726
72.6682
-25.2206
-69.9782
2.73168
-31.6556
-105.647
174.011
-85.2916
50.1463
159.375
85.4739
-2.53833
-44.0167
-10.1949
24.5319
111.588
-45.5938
25.2852
-33.9616
51.5758
40.6536
-109.282
-28.0394
-130.623
-142.893
-45.4818
-23.9101
0.332207
11.057
216.946
-23.1229
-33.4237
21.0128
-47.4301
7.45285
99.8929
33.1354
123.656
85.1007
74.1848
76.6123
31.1445
106.456
-41.1136
89.5564
46.6037
-76.2658
-84.8173
-84.7707
-23.2684
92.1888
134.354
14.0582
108.661
-30.1599
16.5261
-11.292
43.3698
-31.964
108.315
93.8316
57.0721
32.9587
-3.97221
-19.1543
75.2325
-85.9846
-59.3048
-66.6861
-59.8052
185.448
-101.178
71.2517
-40.8291
48.3377
-33.984
171.518
-88.39
-12.7367
98.9322
48.0442
-201.234
24.031
-97.7615
-3.11504
-63.8176
43.6827
-61.7522
-68.0142
-89.551
-78.8703
5.42894
-256.747
-6.94103
-93.8398
19.3098
-5.37852
71.3369
17.7961
2.41321
-55.2847
-239.219
74.7214
-119.73
-9.92009
38.1339
-7.56327
39.522
-129.326
71.778
92.0267
57.6012
70.7995
-15.7975
-61.7507
107.259
6.75423
98.3378
55.505
10.0487
133.082
-25.1224
-5.52839
103.731
23.5112
-159.471
176.797
19.8955
22.3832
111.048
69.1468
31.3271
12.5622
-170.733
-4.40663
48.4092
129.778
-29.9195
-61.7377
-43.3524
-88.307
-28.4219
21.0934
-54.2062
10.7272
-133.251
-146.509
9.11092
-36.0901
69.6429
-76.1214
36.8373
-167.571
-129.021
36.3362
-77.1919
-21.7239
-46.6733
-65.4412
96.0603
-7.12462
55.7952
91.4325
-44.2674
-37.0969
-83.4861
-154.486
-76.9358
-26.8718
2.69716
63.7691
-17.9385
166.197
14.3869
28.708
-88.0417
-23.9651
-36.9484
-102.012
-149.467
-25.5255
-28.8086
38.4732
27.1087
-30.941
58.7471
17.4132
65.1443
-0.266709
-1.33994
-39.9988
-225.994
53.0182
-65.8585
136.268
223.297
47.0947
112.174
-21.2307
-81.4677
-103.377
-174.799
-17.2649
62.4545
-117.55
159.165
-40.5163
-89.8049
-3.59385
102.834
-67.3007
98.1565
98.3216
106.807
71.0023
-135.651
-20.9695
-30.668
55.1935
-8.11466
65.4816
195.069
-41.8349
-28.0121
-72.9747
-223.128
67.4996
-62.0688
-66.5973
50.4745
46.3048
0.0691273
96.0962
-0.0171266
-248.641
96.1276
-108.323
42.3044
1.83699
60.3703
110.737
-144.975
29.2598
-50.0232
-152.071
182.158
-14.1754
77.7764
146.773
137.993
152.516
83.0382
-59.1983
38.8318
-43.8427
141.591
33.2331
2.72091
-26.254
-139.961
194.581
-183.022
7.46059
148.006
-90.6585
139.843
-86.3184
95.7217
-64.9397
-104.321
-68.4282
77.2431
67.9568
-141.511
-8.69361
-199.785
-70.35
-72.1752
-150.706
-13.5534
-80.3945
-42.4122
-92.2734
140.303
-133.185
143.629
203.732
11.5379
-33.0847
22.6172
-129.2
-9.98713
-26.1799
3.58297
96.35
23.9999
-26.7975
-32.3093
64.6626
-24.4735
59.9874
127.325
-51.6871
142.236
-117.51
40.6171
167.775
-50.573
12.5735
0.300379
192.282
3.81515
205.399
44.6312
133.71
-73.552
15.6752
16.1374
178.812
11.2928
18.342
84.7957
50.8854
46.1129
91.9407
-96.4339
55.8024
63.855
45.423
148.162
-5.9574
125.562
-77.0264
58.7427
62.2129
153.791
24.9967
58.1553
80.5127
1.74393
47.9259
25.2218
106.267
64.9032
-108.531
67.1929
-17.6459
0.558665
-85.0892
-39.1535
-112.777
61.6269
-101.6
-12.8192
146.532
-47.9148
71.0153
69.8625
23.0082
20.0341
76.4746
21.0566
40.8768
-50.3743
-81.6508
-66.6993
-2.11835
-70.8691
-106.93
51.4812
-63.9159
-178.444
-16.0245
18.323
-47.6491
37.7619
-16.7167
88.2755
137.661
103.876
90.6663
39.3689
66.5129
39.0846
133.137
51.7617
94.51
45.7803
-78.7435
-58.0189
-9.28988
-91.1912
-108.723
137.326
-71.8668
81.2174
50.5203
-109.332
126.457
37.1191
-131.063
45.2929
59.4669
-42.303
-93.0681
62.8248
18.965
5.15773
-49.6475
-85.9572
-11.3376
-110.059
76.9554
112.768
-71.1713
-35.7327
8.62975
164.904
113.157
142.608
-72.4813
24.5243
-91.5324
-60.8392
-112.918
40.2417
-25.406
118.956
-18.0419
126.905
67.6489
1.14251
4.63354
-18.5966
-168.516
-30.0365
-136.858
-83.833
-44.1869
-114.735
66.6515
29.5656
-135.619
-7.33645
11.2738
4.40672
30.551
-106.6
-64.1586
39.8859
-89.1623
117.831
164.559
164.684
62.3748
39.303
20.18
-5.71417
-120.429
-1.70878
-160.772
-17.5957
81.6505
2.2769
12.8064
15.8149
38.7927
-76.0928
-79.0018
-36.9797
-22.852
-125.222
162.586
-85.7681
-131.093
185.811
-105.117
27.4703
121.236
67.02
163.291
63.3553
9.52423
169.917
-23.0465
-11.2012
-76.0559
60.0321
-51.4787
145.459
-42.7317
-118.027
35.0516
-31.5349
-18.8848
-5.70179
155.21
-98.414
-49.1635
74.8791
21.0284
27.7045
107.159
81.4226
85.5731
-2.15966
28.8538
-24.8936
14.3086
-72.0633
-119.652
-46.0308
90.0941
-45.6842
147.723
-22.5154
5.92866
119.463
-128.968
117.443
-30.1043
57.7982
174.986
-14.09
51.4304
-19.5584
20.9313
50.6405
-17.7301
51.5551
19.3076
7.7558
-110.744
8.62571
-199.864
-127.821
95.959
-44.8228
-106.198
-35.1452
32.5086
-115.566
87.028
3.71557
-11.0662
-118.42
57.8402
-104.753
-76.0692
25.0975
9.99968
3.93555
177.355
29.6456
-3.6533
58.0327
-95.094
94.2613
-46.0579
-67.3129
33.035
89.6532
115.81
-11.038
79.12
-117.625
-101.998
133.195
87.9975
119.502
42.3132
159.298
14.7261
162.244
45.2518
147.153
169.9
-45.6724
22.9512
-54.5662
-50.4016
97.3663
-58.8655
-17.238
-164.331
73.6522
81.4209
70.3123
45.4884
-160.134
189.847
-128.637
9.81625
131.572
-71.5989
-137.852
60.6324
106.683
-115.38
68.5819
-18.9533
-145.048
-121.619
39.5161
-77.6612
32.7243
13.3548
-40.6211
135.091
-41.0682
-46.9971
-47.9625
76.4532
-12.6621
9.58212
-94.3113
-13.1406
-42.1424
-186.366
178.982
-29.3228
14.6369
38.1313
22.8699
34.0942
27.2338
-16.3636
26.5319
-34.4241
34.2567
10.415
-54.4804
-63.0514
-35.8621
-31.2822
62.8605
-81.2887
28.3807
-142.291
-33.1918
-41.4447
2.7174
-48.5108
33.6782
-11.6876
34.6636
-46.3683
-46.3119
-71.366
11.0676
-187.098
14.0343
104.715
-79.9495
63.1529
81.4998
-110.868
110.844
57.744
-59.6926
121.686
54.0818
-129.312
28.773
-46.8924
9.11305
-1.45209
-99.6796
9.97861
-83.8597
60.7566
-20.4125
-3.69908
34.7219
-31.31
122.266
-13.9553
-28.382
8.53971
-65.8399
96.3874
-114.361
103.827
-6.9801
25.7894
76.7515
88.126
88.4398
98.5743
150.719
15.4222
-2.39982
-77.0805
-25.1405
22.2735
-128.83
-64.893
80.1716
28.7892
-20.4289
-120.161
-130.746
25.4817
7.77759
-59.5398
6.56398
-3.27251
21.6391
23.3465
-83.2877
-109.826
-73.4693
8.46732
46.8461
48.7263
6.515
-12.6555
15.2411
86.8817
10.2896
12.9845
25.9014
88.9154
64.6924
128.193
163.632
58.4335
40.1237
-18.1268
26.4147
-121.637
101.097
36.1532
29.1168
17.8646
-16.4848
-25.3262
45.0077
28.3236
-78.1669
-6.46574
-24.099
-69.8681
-66.7012
-14.6876
-99.617
43.3417
-72.4089
-36.5705
35.2744
137.174
-3.5854
24.3567
136.882
-272.645
30.6939
-33.069
-132.98
-23.7031
42.3346
-10.7394
120.455
44.4115
-102.78
16.6763
-50.0303
1.73188
-30.2552
-25.6863
11.2342
43.59
178.452
-127.416
190.835
-3.47596
-57.1786
133.203
-45.5396
95.4016
25.2518
-20.2234
2.17526
-35.6581
-53.7999
-45.7737
-28.0369
-44.7836
-13.6591
73.4271
-20.2364
-83.669
-178.329
-93.1047
-41.8922
-24.3185
-96.7324
57.1247
33.6847
-33.5488
-61.8452
18.9365
-90.5508
-131.832
-142.889
26.9193
-47.0752
92.2527
86.2047
62.7252
46.8092
-37.0167
81.2209
7.3513
65.7816
169.533
-41.4637
4.03239
-80.7218
9.50756
146.401
-54.3661
105.191
-35.3342
73.9044
-15.7592
60.5263
58.8757
21.6894
-53.0193
24.5581
45.092
19.9019
126.221
110.43
100.274
-15.7603
-31.4001
47.1615
-129.576
-50.3506
-34.7826
-207.19
130.619
21.1657
88.2445
93.8771
-31.2202
-8.81211
-2.38546
20.3879
-70.9932
60.0732
-33.801
16.6508
34.8673
37.0447
23.8118
-88.0385
32.8486
125.65
-8.24184
-46.933
9.32474
-132.709
63.3423
122.366
-74.0863
174.795
80.5805
157.772
42.6842
70.3678
-212.121
-63.0653
-83.8105
-114.483
10.9924
-46.4516
65.5165
-46.1026
65.1619
41.0389
7.0065
-2.01733
-109.521
8.38933
14.4304
-50.7092
-102.315
96.646
-68.6599
-4.73856
68.9046
100.213
123.22
46.8548
-57.7999
139.819
12.683
43.1706
6.37449
37.6352
-61.5079
136.686
91.9974
13.1001
-60.3683
-96.1956
-61.0139
-83.2949
65.6255
47.9625
-24.0922
-51.1364
-101.295
141.302
-34.731
94.9527
43.2553
135.94
-10.7526
-33.3924
22.3532
52.6676
-69.4944
-88.8404
-107.602
-48.8814
-29.8955
-18.6058
21.946
-41.6235
99.8668
14.4538
47.8037
-3.30199
85.6232
38.0272
-67.0419
30.1769
-6.42121
-28.9802
39.5056
195.925
-53.0489
23.3318
102.652
-144.724
192.031
-39.4714
8.15971
51.0463
-2.40033
-10.3709
81.8484
12.4552
86.0798
-41.2051
-41.7941
-35.596
0.963074
-11.424
126.541
60.2019
74.0016
118.261
-39.2888
-64.1008
-74.9637
-7.37687
50.6739
-77.1748
238.139
-10.8061
47.6267
42.8539
-32.0829
1.23304
-85.3151
82.1078
97.103
38.265
8.12741
68.543
-74.5022
-46.3698
19.4758
-190.422
165.148
109.687
126.062
172.627
30.7212
25.1104
72.0974
-52.3041
-95.6604
4.32895
4.69064
-27.2967
-65.6963
-93.5409
-114.002
106.581
-175.649
18.6812
-1.54515
53.5949
-9.59062
-10.8745
13.1367
-83.0728
-22.8515
23.1352
-91.791
-71.7589
37.8967
-55.6487
60.705
9.91164
-200.689
-30.1907
-100.88
-23.4908
-116.316
31.694
-4.71152
-97.5713
248.335
-74.7916
64.3382
-65.7416
135.051
-18.1424
33.111
-37.7858
-128.548
-18.261
70.8274
-53.0377
96.5277
-13.0008
-67.103
44.2661
-61.2638
-58.3331
-29.0588
-67.4027
-109.254
-154.867
-147.796
-111.572
-15.164
74.5583
66.2853
33.4002
43.314
55.6315
-129.307
-14.8039
49.9748
-165.446
-56.8436
96.2743
-51.9375
22.2103
-102.427
-147.276
98.3668
-18.2909
2.68514
63.6543
-122.803
-56.9431
-156.289
9.08913
-70.1531
-69.4607
-27.8355
8.88398
47.6729
134.152
3.69553
54.7554
90.6613
-29.4176
61.7262
68.6125
13.7049
185.605
-27.4705
105.835
186.772
-143.521
47.9864
-73.7951
-26.9931
-193.154
-59.5998
-63.0974
1.38733
29.4529
-63.2832
-11.3287
14.0622
-83.8667
1.85225
-44.5318
-30.6455
-72.0281
79.0654
10.1398
55.3128
119.788
-36.176
156.428
28.593
72.8221
32.3586
-25.6841
-67.5612
-41.6532
-47.7655
-77.7853
37.628
-40.9891
131.056
-57.5856
45.9716
-45.7325
-7.76177
-21.4938
53.1842
-74.651
-30.7899
-36.1923
-72.1664
85.8054
-99.5958
-33.9702
51.7785
25.7812
-83.7015
-56.3568
25.831
-56.95
-57.2622
-158.812
-31.9083
-160.116
49.3522
-7.81305
113.807
159.346
32.0685
36.0425
38.7419
32.5912
-153.073
-2.55667
65.0295
126.995
73.8408
34.4514
10.1891
4.90936
-140.179
-1.94819
127.549
-166.079
90.0617
7.53029
-23.0589
72.645
49.0625
104.429
68.4259
-9.05294
54.2141
-20.3945
-28.1004
-42.8429
34.801
-34.5117
69.5648
52.3298
65.0525
65.4135
18.6688
-167.117
-52.1779
15.2015
59.224
142.906
118.4
93.4774
141.469
-106.611
129.856
124.595
69.2738
55.8403
134.109
-71.4188
-87.9316
67.4089
-18.1208
119.684
-30.295
-58.3309
-94.954
-65.2636
-23.7927
86.1845
-39.2774
-0.257588
27.2086
-227.339
-84.6601
71.9961
-63.1789
41.5746
71.3906
13.4642
31.6435
-70.7903
-28.9147
-1.92229
-21.5534
39.9544
-68.6088
87.1884
-61.169
59.0111
-46.7807
-0.00342751
-77.5302
-119.422
18.0233
-71.5402
-70.6849
60.5775
53.5695
6.983
-157.031
21.5894
67.7917
2.08234
66.7163
-110.911
-88.4097
-145.143
65.5778
-46.7827
139.246
38.2437
-55.7727
55.5054
61.3192
-97.9261
-8.9085
-48.5542
-76.6896
-15.927
-6.17367
-27.4015
39.2366
-51.2255
-50.837
-15.8283
-14.5926
47.319
140.415
-104.637
16.5198
70.7293
-109.603
-88.5705
137.98
-38.0282
115.488
-32.505
-110.2
71.4185
79.904
152.139
-41.8394
170.962
-27.3944
20.0381
47.3418
-3.47764
21.1056
68.7395
-114.704
54.4277
48.6661
160.449
3.05434
59.653
-14.895
-20.7028
-148.859
81.6613
-153.33
-113.042
-106.477
-78.9595
23.1752
-57.4208
114.48
113.526
79.5337
18.8734
47.1506
58.1711
54.8764
94.7711
66.7911
-60.3298
113.366
22.3618
75.7081
-51.7642
17.0188
108.513
42.824
-30.5621
3.12919
102.445
63.3114
57.5763
18.8145
-82.577
-8.58348
-141.287
-13.2298
-14.3757
62.1597
-26.0563
30.6948
-177.417
31.1461
-2.71942
-0.257517
8.73515
42.9121
-114.681
-3.05801
-7.95346
97.0893
68.1729
-65.7436
128.106
-57.4049
29.6623
41.2504
-12.0434
56.9895
15.6828
5.25505
-30.6969
16.2624
-136.087
10.7907
-2.73192
-21.4201
73.3732
26.6086
115.933
36.5578
111.467
190.596
-13.3614
107.924
137.011
186.563
80.6527
-98.8971
15.0644
25.9204
-34.6106
34.4102
-109.13
-88.3181
-59.3639
-35.0359
123.11
-19.9965
25.5989
16.068
-27.3527
65.3548
-66.1789
24.8574
-28.6945
-11.8964
-169.454
28.5386
34.3482
-3.39509
-28.7707
114.058
92.0866
121.38
-29.78
-4.45341
29.2222
62.5249
-18.0395
-80.7385
106.578
-44.4775
-37.9387
74.3981
-63.2476
-23.5682
113.826
-84.9656
75.3984
107.603
3.17342
42.7874
-95.1937
12.5536
-109.891
-21.4532
66.0826
-11.036
112.547
-28.2006
-64.4145
-22.8297
17.9426
109.703
-56.5067
76.1755
-57.3134
-108.178
-18.1319
19.2185
-4.02859
50.3982
155.814
57.6592
32.188
18.5873
61.5778
-23.4472
80.4477
67.8208
105.996
33.7036
109.542
-65.0683
-113.645
120.675
-73.1011
12.0413
192.172
-60.4812
55.7754
-15.0383
-106.242
179.647
35.8925
15.3042
-59.6677
132.265
17.5291
97.1088
113.952
-103.409
109.832
51.194
4.0283
-143.627
-11.8146
-94.0131
-91.4667
107.077
29.0234
-60.6141
97.7434
-110.133
134.993
8.6527
25.3912
23.8242
60.3747
75.211
7.64473
-78.939
-124.928
53.512
-212.35
85.3013
-40.3102
5.70886
95.3152
7.13057
-16.8649
78.0803
-71.148
158.395
25.281
60.4338
43.8295
-92.7307
72.4637
38.9291
-1.52702
-67.4028
21.8616
-119.554
-14.1767
-19.1321
-48.5325
4.65269
79.0321
-182.5
-50.4537
-75.826
-102.788
77.8848
-92.8476
-32.6954
85.9411
100.449
105.8
23.7567
0.264164
-74.3166
-159.691
-101.487
-47.9392
-79.8951
31.8384
-72.4898
79.5839
-153.709
70.2943
100.221
42.3009
67.6523
-152.621
38.579
-80.1514
-46.9902
-71.8173
-52.5158
-144.895
-73.8356
-93.341
58.8268
-31.3876
181.772
-117.865
24.3516
-92.1411
-5.74147
-135.387
-47.5845
-197.559
62.7472
171.455
-55.2054
94.6254
-10.5254
45.2365
-48.0459
14.3786
-198.528
-14.4767
-102.781
-34.003
71.3775
-16.8514
-100.676
-46.7876
25.4965
-68.8419
60.8481
4.20366
33.8654
-63.5414
74.2001
-14.5081
202.378
-41.851
52.173
-190.138
47.9107
-0.372949
-112.535
35.1919
-56.4142
-115.583
58.2043
-123.305
115.098
69.5831
43.7428
53.8263
-67.1811
2.53103
0.179242
78.5935
-39.9409
-22.5495
-164.792
40.8312
85.822
-35.1901
93.4529
-7.40822
108.995
88.0098
-41.7276
-12.621
37.7926
32.9673
74.2083
65.9786
75.4254
32.6603
78.9314
-8.71044
155.783
-11.7694
-118.063
76.8707
7.63036
52.3479
8.97131
-24.2875
54.3729
106.39
124.817
58.5768
-153.49
-96.4568
13.4859
3.7797
52.5294
53.2033
-19.7259
-208.19
-15.5875
-25.1567
41.6545
69.629
8.21728
37.192
-24.142
104.716
-25.9557
33.5764
-32.1069
-0.214499
-78.1089
23.8307
-27.8264
122.996
58.7381
-145.934
-4.90226
-78.2021
-20.6404
-47.0724
155.639
65.2946
-9.22196
125.685
-38.512
-149.618
-0.00359058
-9.69759
101.873
-64.0544
-52.5594
30.2431
-29.518
-44.1249
69.9842
10.8056
76.6029
-36.3875
4.49759
-13.5955
-80.4786
-53.9724
172.931
8.72976
9.48518
83.1158
-92.4985
-14.0158
99.1708
-58.7562
-29.2698
53.9775
-65.4317
-47.422
172.118
3.80407
47.0754
-75.773
26.7618
7.07663
123.35
0.064949
-44.4376
17.5127
-27.3503
104.778
-42.9423
45.1193
95.9738
-6.56578
-65.9786
-59.245
3.40307
-19.5159
-8.46556
31.7748
-31.1968
-30.0327
-35.1969
87.0295
-35.8059
73.9419
97.0737
-107.686
-21.1355
-119.855
-21.9918
-67.0103
14.6536
15.9982
-31.1882
7.62397
75.216
-12.3994
13.128
-168.079
70.6773
-163.179
28.1828
-3.40692
-82.1218
-35.6518
70.2705
-62.7657
-31.4875
-8.16303
-67.3285
11.6432
-124.853
47.5872
-0.298005
20.5931
22.7231
106.847
-24.5083
162.056
83.0993
-250.585
159.425
-60.08
-116.955
60.5527
-74.5141
-49.898
67.0184
-19.961
104.767
-151.147
111.737
-34.6183
-4.90912
116.159
-32.477
-0.998387
-63.2477
77.297
-7.3989
-5.94372
75.6498
25.7665
-55.67
33.0227
-109.642
8.18827
57.9606
-57.9598
67.9766
26.2121
-7.86606
-99.1831
35.2161
106.9
-2.25102
164.163
-32.0133
-90.8422
146.31
-69.7344
-15.2957
-61.2841
36.1217
25.6319
-26.4106
11.4999
69.2911
-36.355
-3.17909
-85.4996
-160.307
123.88
-152.998
36.5813
97.3762
112.116
-27.3654
-11.888
94.1227
-62.0798
-26.4196
15.3095
-43.8361
40.906
52.5928
-48.7167
113.407
-68.3499
-16.445
-65.9224
147.067
36.4044
-49.1017
86.3877
61.097
-86.2564
-25.5633
46.9473
-80.6717
140.542
-182.267
45.0435
133.931
-82.0148
-0.722418
-47.6719
-87.0855
-53.3659
-30.9724
31.099
25.4149
80.3494
5.99296
86.2295
-6.99388
56.8544
0.294917
46.1696
-68.5854
40.1338
127.131
38.5327
115.158
37.7447
-151.3
148.17
-25.8208
30.8763
-38.3939
-22.9455
15.7718
31.8573
37.1464
8.91889
71.7512
85.0747
26.0248
53.3043
37.5412
50.9322
-109.189
67.2105
-54.5892
35.7205
-23.7076
-9.44936
97.013
14.61
144.869
-144.918
-103.259
-75.6012
95.3486
-70.2716
88.5662
-13.9503
-113.578
89.0792
-65.6802
28.4354
49.244
-48.5118
123.087
30.9742
4.2362
63.0057
15.581
74.2727
-132.289
-118.077
21.727
-56.7963
-35.4245
-80.7258
43.7537
-6.48204
86.4056
-2.8992
1.92597
49.725
-29.1608
142.734
78.2588
27.6531
0.141106
-39.76
11.6187
17.0959
-27.7977
-111.967
38.7105
-69.0837
-7.81133
-11.672
-133.271
102.169
16.5697
72.7808
93.6944
-49.7762
-8.83231
-18.8156
-12.7845
96.4444
-15.5828
92.2939
103.048
-37.8259
-51.6024
25.2702
-80.8515
-21.4411
103.62
19.5914
43.0838
160.667
-27.0206
-102.587
-51.6227
92.1639
-67.8832
68.4644
36.3563
-132.007
-13.6361
6.98882
-54.7686
92.6156
-45.3554
65.8765
44.3433
-123.267
-50.0564
101.219
36.1953
-84.7234
137.8
-43.773
-13.2304
19.9212
5.22789
-125.778
199.971
18.2353
-120.918
11.1295
-24.9822
-30.0017
71.217
1.97866
-68.4567
38.884
10.597
-25.1235
-131.448
11.4049
13.7021
-9.52981
-85.5349
35.8263
79.1732
51.9465
36.0748
-44.9497
-9.26039
-19.493
-12.538
105.757
5.39995
39.6212
13.4555
-93.7825
88.2726
33.4251
20.7169
94.2571
-65.8256
49.4239
43.2774
-31.8094
3.77122
13.3417
-100.299
-98.0008
9.40775
-1.14882
-77.9715
164.95
-123.24
86.0705
20.9183
-68.6168
69.5516
25.97
-26.9268
-31.6266
41.3552
-53.3164
129.654
-2.8982
-34.9793
-61.2561
-90.2756
-75.0027
-32.017
44.7794
79.9231
0.561828
56.2844
1.66934
-46.6027
57.106
10.6925
-24.5431
-23.4755
-59.0902
-47.2201
95.6627
33.2886
23.2423
-39.3763
9.13062
67.2303
-58.3194
-24.6979
48.6944
-102.845
12.3579
-58.0891
15.2646
79.7148
-59.5287
-50.0665
-5.28289
44.2344
46.3437
-78.2428
-16.7555
106.248
-64.5058
-78.6467
22.8369
-13.9048
-66.5529
-18.0875
132.152
-2.95242
53.2562
13.8102
76.4885
46.4784
41.2919
95.4512
36.8042
-165.596
82.2437
-58.2423
-25.4691
42.2391
-80.2562
6.46451
26.7077
-99.8956
43.0636
-72.2057
32.725
-3.61637
3.31819
-63.6423
70.4943
97.6217
0.89399
103.856
-62.2984
61.1333
-9.28525
35.7895
22.5643
-71.7768
163.806
-3.6749
-0.174212
69.7522
-92.0933
131.906
-38.5924
-60.5701
-123.099
33.4382
-16.524
-10.8615
1.17937
-66.4326
77.402
63.0682
43.1834
-59.9835
132.299
-27.5232
-50.8633
130.94
-111.503
134.2
-86.4754
-95.8214
137.886
-90.7635
43.1116
45.9735
-12.8187
-103.594
108.042
12.4789
-26.8639
88.0121
-15.1442
-110.707
67.1357
14.6388
-13.1175
-29.6805
104.154
0.737129
-38.0107
7.87337
33.6006
-86.0657
-21.6354
-63.0537
33.084
-61.7785
52.6205
31.7443
111.984
-4.90426
GPGPU-Sim: *** exit detected ***
