

        *** GPGPU-Sim Simulator Version 4.0.0  [build gpgpu-sim_git-commit-90ec3399763d7c8512cfe7dc193473086c38ca38_modified_0.0] ***


GPGPU-Sim PTX: simulation mode 0 (can change with PTX_SIM_MODE_FUNC environment variable:
               1=functional simulation only, 0=detailed performance simulator)
GPGPU-Sim PTX: overriding embedded ptx with ptx file (PTX_SIM_USE_PTX_FILE is set)
GPGPU-Sim: Configuration options:

-save_embedded_ptx                      0 # saves ptx files embedded in binary as <n>.ptx
-keep                                   0 # keep intermediate files created by GPGPU-Sim when interfacing with external programs
-gpgpu_ptx_save_converted_ptxplus                    0 # Saved converted ptxplus to a file
-gpgpu_occupancy_sm_number                   70 # The SM number to pass to ptxas when getting register usage for computing GPU occupancy. This parameter is required in the config.
-ptx_opcode_latency_int      4,13,4,5,145,21 # Opcode latencies for integers <ADD,MAX,MUL,MAD,DIV,SHFL>Default 1,1,19,25,145,32
-ptx_opcode_latency_fp          4,13,4,5,39 # Opcode latencies for single precision floating points <ADD,MAX,MUL,MAD,DIV>Default 1,1,1,1,30
-ptx_opcode_latency_dp         8,19,8,8,330 # Opcode latencies for double precision floating points <ADD,MAX,MUL,MAD,DIV>Default 8,8,8,8,335
-ptx_opcode_latency_sfu                  100 # Opcode latencies for SFU instructionsDefault 8
-ptx_opcode_latency_tesnor                   64 # Opcode latencies for Tensor instructionsDefault 64
-ptx_opcode_initiation_int          2,2,2,2,8,4 # Opcode initiation intervals for integers <ADD,MAX,MUL,MAD,DIV,SHFL>Default 1,1,4,4,32,4
-ptx_opcode_initiation_fp            2,2,2,2,4 # Opcode initiation intervals for single precision floating points <ADD,MAX,MUL,MAD,DIV>Default 1,1,1,1,5
-ptx_opcode_initiation_dp          4,4,4,4,130 # Opcode initiation intervals for double precision floating points <ADD,MAX,MUL,MAD,DIV>Default 8,8,8,8,130
-ptx_opcode_initiation_sfu                    8 # Opcode initiation intervals for sfu instructionsDefault 8
-ptx_opcode_initiation_tensor                   64 # Opcode initiation intervals for tensor instructionsDefault 64
-cdp_latency         7200,8000,100,12000,1600 # CDP API latency <cudaStreamCreateWithFlags, cudaGetParameterBufferV2_init_perWarp, cudaGetParameterBufferV2_perKernel, cudaLaunchDeviceV2_init_perWarp, cudaLaunchDevicV2_perKernel>Default 7200,8000,100,12000,1600
-network_mode                           2 # Interconnection network mode
-inter_config_file                   mesh # Interconnection network config file
-icnt_in_buffer_limit                  512 # in_buffer_limit
-icnt_out_buffer_limit                  512 # out_buffer_limit
-icnt_subnets                           2 # subnets
-icnt_arbiter_algo                      1 # arbiter_algo
-icnt_verbose                           0 # inct_verbose
-icnt_grant_cycles                      1 # grant_cycles
-gpgpu_ptx_use_cuobjdump                    1 # Use cuobjdump to extract ptx and sass from binaries
-gpgpu_experimental_lib_support                    0 # Try to extract code from cuda libraries [Broken because of unknown cudaGetExportTable]
-checkpoint_option                      0 #  checkpointing flag (0 = no checkpoint)
-checkpoint_kernel                      1 #  checkpointing during execution of which kernel (1- 1st kernel)
-checkpoint_CTA                         0 #  checkpointing after # of CTA (< less than total CTA)
-resume_option                          0 #  resume flag (0 = no resume)
-resume_kernel                          0 #  Resume from which kernel (1= 1st kernel)
-resume_CTA                             0 #  resume from which CTA 
-checkpoint_CTA_t                       0 #  resume from which CTA 
-checkpoint_insn_Y                      0 #  resume from which CTA 
-gpgpu_ptx_convert_to_ptxplus                    0 # Convert SASS (native ISA) to ptxplus and run ptxplus
-gpgpu_ptx_force_max_capability                   70 # Force maximum compute capability
-gpgpu_ptx_inst_debug_to_file                    0 # Dump executed instructions' debug information to file
-gpgpu_ptx_inst_debug_file       inst_debug.txt # Executed instructions' debug output file
-gpgpu_ptx_inst_debug_thread_uid                    1 # Thread UID for executed instructions' debug output
-gpgpu_simd_model                       1 # 1 = post-dominator
-gpgpu_shader_core_pipeline              2048:32 # shader core pipeline config, i.e., {<nthread>:<warpsize>}
-gpgpu_tex_cache:l1  N:4:128:256,L:R:m:N:L,T:512:8,128:2 # per-shader L1 texture cache  (READ-ONLY) config  {<nsets>:<bsize>:<assoc>,<rep>:<wr>:<alloc>:<wr_alloc>,<mshr>:<N>:<merge>,<mq>:<rf>}
-gpgpu_const_cache:l1 N:128:64:8,L:R:f:N:L,S:2:64,4 # per-shader L1 constant memory cache  (READ-ONLY) config  {<nsets>:<bsize>:<assoc>,<rep>:<wr>:<alloc>:<wr_alloc>,<mshr>:<N>:<merge>,<mq>} 
-gpgpu_cache:il1     N:64:128:16,L:R:f:N:L,S:2:48,4 # shader L1 instruction cache config  {<nsets>:<bsize>:<assoc>,<rep>:<wr>:<alloc>:<wr_alloc>,<mshr>:<N>:<merge>,<mq>} 
-gpgpu_cache:dl1     S:1:128:256,L:L:s:N:L,A:256:8,16:0,32 # per-shader L1 data cache config  {<nsets>:<bsize>:<assoc>,<rep>:<wr>:<alloc>:<wr_alloc>,<mshr>:<N>:<merge>,<mq> | none}
-gpgpu_l1_banks                         4 # The number of L1 cache banks
-gpgpu_l1_banks_byte_interleaving                   32 # l1 banks byte interleaving granularity
-gpgpu_l1_banks_hashing_function                    0 # l1 banks hashing function
-gpgpu_l1_latency                      20 # L1 Hit Latency
-gpgpu_smem_latency                    20 # smem Latency
-gpgpu_cache:dl1PrefL1                 none # per-shader L1 data cache config  {<nsets>:<bsize>:<assoc>,<rep>:<wr>:<alloc>:<wr_alloc>,<mshr>:<N>:<merge>,<mq> | none}
-gpgpu_cache:dl1PrefShared                 none # per-shader L1 data cache config  {<nsets>:<bsize>:<assoc>,<rep>:<wr>:<alloc>:<wr_alloc>,<mshr>:<N>:<merge>,<mq> | none}
-gpgpu_gmem_skip_L1D                    0 # global memory access skip L1D cache (implements -Xptxas -dlcm=cg, default=no skip)
-gpgpu_perfect_mem                      0 # enable perfect memory mode (no cache miss)
-n_regfile_gating_group                    4 # group of lanes that should be read/written together)
-gpgpu_clock_gated_reg_file                    0 # enable clock gated reg file for power calculations
-gpgpu_clock_gated_lanes                    0 # enable clock gated lanes for power calculations
-gpgpu_shader_registers                65536 # Number of registers per shader core. Limits number of concurrent CTAs. (default 8192)
-gpgpu_registers_per_block                65536 # Maximum number of registers per CTA. (default 8192)
-gpgpu_ignore_resources_limitation                    0 # gpgpu_ignore_resources_limitation (default 0)
-gpgpu_shader_cta                      32 # Maximum number of concurrent CTAs in shader (default 8)
-gpgpu_num_cta_barriers                   16 # Maximum number of named barriers per CTA (default 16)
-gpgpu_n_clusters                      80 # number of processing clusters
-gpgpu_n_cores_per_cluster                    1 # number of simd cores per cluster
-gpgpu_n_cluster_ejection_buffer_size                   32 # number of packets in ejection buffer
-gpgpu_n_ldst_response_buffer_size                    2 # number of response packets in ld/st unit ejection buffer
-gpgpu_shmem_per_block                65536 # Size of shared memory per thread block or CTA (default 48kB)
-gpgpu_shmem_size                   98304 # Size of shared memory per shader core (default 16kB)
-gpgpu_adaptive_cache_config                    1 # adaptive_cache_config
-gpgpu_shmem_sizeDefault                98304 # Size of shared memory per shader core (default 16kB)
-gpgpu_shmem_size_PrefL1                16384 # Size of shared memory per shader core (default 16kB)
-gpgpu_shmem_size_PrefShared                16384 # Size of shared memory per shader core (default 16kB)
-gpgpu_shmem_num_banks                   32 # Number of banks in the shared memory in each shader core (default 16)
-gpgpu_shmem_limited_broadcast                    0 # Limit shared memory to do one broadcast per cycle (default on)
-gpgpu_shmem_warp_parts                    1 # Number of portions a warp is divided into for shared memory bank conflict check 
-gpgpu_mem_unit_ports                    1 # The number of memory transactions allowed per core cycle
-gpgpu_shmem_warp_parts                    1 # Number of portions a warp is divided into for shared memory bank conflict check 
-gpgpu_warpdistro_shader                   -1 # Specify which shader core to collect the warp size distribution from
-gpgpu_warp_issue_shader                    0 # Specify which shader core to collect the warp issue distribution from
-gpgpu_local_mem_map                    1 # Mapping from local memory space address to simulated GPU physical address space (default = enabled)
-gpgpu_num_reg_banks                   16 # Number of register banks (default = 8)
-gpgpu_reg_bank_use_warp_id                    0 # Use warp ID in mapping registers to banks (default = off)
-gpgpu_sub_core_model                    1 # Sub Core Volta/Pascal model (default = off)
-gpgpu_enable_specialized_operand_collector                    0 # enable_specialized_operand_collector
-gpgpu_operand_collector_num_units_sp                    4 # number of collector units (default = 4)
-gpgpu_operand_collector_num_units_dp                    0 # number of collector units (default = 0)
-gpgpu_operand_collector_num_units_sfu                    4 # number of collector units (default = 4)
-gpgpu_operand_collector_num_units_int                    0 # number of collector units (default = 0)
-gpgpu_operand_collector_num_units_tensor_core                    4 # number of collector units (default = 4)
-gpgpu_operand_collector_num_units_mem                    2 # number of collector units (default = 2)
-gpgpu_operand_collector_num_units_gen                    8 # number of collector units (default = 0)
-gpgpu_operand_collector_num_in_ports_sp                    1 # number of collector unit in ports (default = 1)
-gpgpu_operand_collector_num_in_ports_dp                    0 # number of collector unit in ports (default = 0)
-gpgpu_operand_collector_num_in_ports_sfu                    1 # number of collector unit in ports (default = 1)
-gpgpu_operand_collector_num_in_ports_int                    0 # number of collector unit in ports (default = 0)
-gpgpu_operand_collector_num_in_ports_tensor_core                    1 # number of collector unit in ports (default = 1)
-gpgpu_operand_collector_num_in_ports_mem                    1 # number of collector unit in ports (default = 1)
-gpgpu_operand_collector_num_in_ports_gen                    8 # number of collector unit in ports (default = 0)
-gpgpu_operand_collector_num_out_ports_sp                    1 # number of collector unit in ports (default = 1)
-gpgpu_operand_collector_num_out_ports_dp                    0 # number of collector unit in ports (default = 0)
-gpgpu_operand_collector_num_out_ports_sfu                    1 # number of collector unit in ports (default = 1)
-gpgpu_operand_collector_num_out_ports_int                    0 # number of collector unit in ports (default = 0)
-gpgpu_operand_collector_num_out_ports_tensor_core                    1 # number of collector unit in ports (default = 1)
-gpgpu_operand_collector_num_out_ports_mem                    1 # number of collector unit in ports (default = 1)
-gpgpu_operand_collector_num_out_ports_gen                    8 # number of collector unit in ports (default = 0)
-gpgpu_coalesce_arch                   60 # Coalescing arch (GT200 = 13, Fermi = 20)
-gpgpu_num_sched_per_core                    4 # Number of warp schedulers per core
-gpgpu_max_insn_issue_per_warp                    1 # Max number of instructions that can be issued per warp in one cycle by scheduler (either 1 or 2)
-gpgpu_dual_issue_diff_exec_units                    1 # should dual issue use two different execution unit resources (Default = 1)
-gpgpu_simt_core_sim_order                    1 # Select the simulation order of cores in a cluster (0=Fix, 1=Round-Robin)
-gpgpu_pipeline_widths 4,4,4,4,4,4,4,4,4,4,8,4,4 # Pipeline widths ID_OC_SP,ID_OC_DP,ID_OC_INT,ID_OC_SFU,ID_OC_MEM,OC_EX_SP,OC_EX_DP,OC_EX_INT,OC_EX_SFU,OC_EX_MEM,EX_WB,ID_OC_TENSOR_CORE,OC_EX_TENSOR_CORE
-gpgpu_tensor_core_avail                    1 # Tensor Core Available (default=0)
-gpgpu_num_sp_units                     4 # Number of SP units (default=1)
-gpgpu_num_dp_units                     4 # Number of DP units (default=0)
-gpgpu_num_int_units                    4 # Number of INT units (default=0)
-gpgpu_num_sfu_units                    4 # Number of SF units (default=1)
-gpgpu_num_tensor_core_units                    4 # Number of tensor_core units (default=1)
-gpgpu_num_mem_units                    1 # Number if ldst units (default=1) WARNING: not hooked up to anything
-gpgpu_scheduler                      gto # Scheduler configuration: < lrr | gto | two_level_active > If two_level_active:<num_active_warps>:<inner_prioritization>:<outer_prioritization>For complete list of prioritization values see shader.h enum scheduler_prioritization_typeDefault: gto
-gpgpu_concurrent_kernel_sm                    0 # Support concurrent kernels on a SM (default = disabled)
-gpgpu_perfect_inst_const_cache                    1 # perfect inst and const cache mode, so all inst and const hits in the cache(default = disabled)
-gpgpu_inst_fetch_throughput                    4 # the number of fetched intruction per warp each cycle
-gpgpu_reg_file_port_throughput                    2 # the number ports of the register file
-specialized_unit_1         0,4,4,4,4,BRA # specialized unit config {<enabled>,<num_units>:<latency>:<initiation>,<ID_OC_SPEC>:<OC_EX_SPEC>,<NAME>}
-specialized_unit_2         0,4,4,4,4,BRA # specialized unit config {<enabled>,<num_units>:<latency>:<initiation>,<ID_OC_SPEC>:<OC_EX_SPEC>,<NAME>}
-specialized_unit_3         0,4,4,4,4,BRA # specialized unit config {<enabled>,<num_units>:<latency>:<initiation>,<ID_OC_SPEC>:<OC_EX_SPEC>,<NAME>}
-specialized_unit_4         0,4,4,4,4,BRA # specialized unit config {<enabled>,<num_units>:<latency>:<initiation>,<ID_OC_SPEC>:<OC_EX_SPEC>,<NAME>}
-specialized_unit_5         0,4,4,4,4,BRA # specialized unit config {<enabled>,<num_units>:<latency>:<initiation>,<ID_OC_SPEC>:<OC_EX_SPEC>,<NAME>}
-specialized_unit_6         0,4,4,4,4,BRA # specialized unit config {<enabled>,<num_units>:<latency>:<initiation>,<ID_OC_SPEC>:<OC_EX_SPEC>,<NAME>}
-specialized_unit_7         0,4,4,4,4,BRA # specialized unit config {<enabled>,<num_units>:<latency>:<initiation>,<ID_OC_SPEC>:<OC_EX_SPEC>,<NAME>}
-specialized_unit_8         0,4,4,4,4,BRA # specialized unit config {<enabled>,<num_units>:<latency>:<initiation>,<ID_OC_SPEC>:<OC_EX_SPEC>,<NAME>}
-gpgpu_perf_sim_memcpy                    1 # Fill the L2 cache on memcpy
-gpgpu_simple_dram_model                    0 # simple_dram_model with fixed latency and BW
-gpgpu_dram_scheduler                    1 # 0 = fifo, 1 = FR-FCFS (defaul)
-gpgpu_dram_partition_queues          64:64:64:64 # i2$:$2d:d2$:$2i
-l2_ideal                               0 # Use a ideal L2 cache that always hit
-gpgpu_cache:dl2     S:32:128:24,L:B:m:L:P,A:192:4,32:0,32 # unified banked L2 data cache config  {<nsets>:<bsize>:<assoc>,<rep>:<wr>:<alloc>:<wr_alloc>,<mshr>:<N>:<merge>,<mq>}
-gpgpu_cache:dl2_texture_only                    0 # L2 cache used for texture only
-gpgpu_n_mem                           32 # number of memory modules (e.g. memory controllers) in gpu
-gpgpu_n_sub_partition_per_mchannel                    2 # number of memory subpartition in each memory module
-gpgpu_n_mem_per_ctrlr                    1 # number of memory chips per memory controller
-gpgpu_memlatency_stat                   14 # track and display latency statistics 0x2 enables MC, 0x4 enables queue logs
-gpgpu_frfcfs_dram_sched_queue_size                   64 # 0 = unlimited (default); # entries per chip
-gpgpu_dram_return_queue_size                  192 # 0 = unlimited (default); # entries per chip
-gpgpu_dram_buswidth                   16 # default = 4 bytes (8 bytes per cycle at DDR)
-gpgpu_dram_burst_length                    2 # Burst length of each DRAM request (default = 4 data bus cycle)
-dram_data_command_freq_ratio                    2 # Frequency ratio between DRAM data bus and command bus (default = 2 times, i.e. DDR)
-gpgpu_dram_timing_opt nbk=16:CCD=1:RRD=3:RCD=12:RAS=28:RP=12:RC=40: CL=12:WL=2:CDLR=3:WR=10:nbkgrp=4:CCDL=2:RTPL=3 # DRAM timing parameters = {nbk:tCCD:tRRD:tRCD:tRAS:tRP:tRC:CL:WL:tCDLR:tWR:nbkgrp:tCCDL:tRTPL}
-gpgpu_l2_rop_latency                  160 # ROP queue latency (default 85)
-dram_latency                         100 # DRAM latency (default 30)
-dram_dual_bus_interface                    1 # dual_bus_interface (default = 0) 
-dram_bnk_indexing_policy                    0 # dram_bnk_indexing_policy (0 = normal indexing, 1 = Xoring with the higher bits) (Default = 0)
-dram_bnkgrp_indexing_policy                    1 # dram_bnkgrp_indexing_policy (0 = take higher bits, 1 = take lower bits) (Default = 0)
-dram_seperate_write_queue_enable                    0 # Seperate_Write_Queue_Enable
-dram_write_queue_size             32:28:16 # Write_Queue_Size
-dram_elimnate_rw_turnaround                    0 # elimnate_rw_turnaround i.e set tWTR and tRTW = 0
-icnt_flit_size                        40 # icnt_flit_size
-gpgpu_mem_addr_mapping dramid@8;00000000.00000000.00000000.00000000.0000RRRR.RRRRRRRR.RBBBCCCB.CCCSSSSS # mapping memory address to dram model {dramid@<start bit>;<memory address map>}
-gpgpu_mem_addr_test                    0 # run sweep test to check address mapping for aliased address
-gpgpu_mem_address_mask                    1 # 0 = old addressing mask, 1 = new addressing mask, 2 = new add. mask + flipped bank sel and chip sel bits
-gpgpu_memory_partition_indexing                    2 # 0 = no indexing, 1 = bitwise xoring, 2 = IPoly, 3 = custom indexing
-gpuwattch_xml_file         gpuwattch.xml # GPUWattch XML file
-power_simulation_enabled                    0 # Turn on power simulator (1=On, 0=Off)
-power_per_cycle_dump                    0 # Dump detailed power output each cycle
-power_trace_enabled                    0 # produce a file for the power trace (1=On, 0=Off)
-power_trace_zlevel                     6 # Compression level of the power trace output log (0=no comp, 9=highest)
-steady_power_levels_enabled                    0 # produce a file for the steady power levels (1=On, 0=Off)
-steady_state_definition                  8:4 # allowed deviation:number of samples
-gpgpu_max_cycle                        0 # terminates gpu simulation early (0 = no limit)
-gpgpu_max_insn                         0 # terminates gpu simulation early (0 = no limit)
-gpgpu_max_cta                          0 # terminates gpu simulation early (0 = no limit)
-gpgpu_max_completed_cta                    0 # terminates gpu simulation early (0 = no limit)
-gpgpu_runtime_stat                   500 # display runtime statistics such as dram utilization {<freq>:<flag>}
-liveness_message_freq                    1 # Minimum number of seconds between simulation liveness messages (0 = always print)
-gpgpu_compute_capability_major                    7 # Major compute capability version number
-gpgpu_compute_capability_minor                    0 # Minor compute capability version number
-gpgpu_flush_l1_cache                    1 # Flush L1 cache at the end of each kernel call
-gpgpu_flush_l2_cache                    0 # Flush L2 cache at the end of each kernel call
-gpgpu_deadlock_detect                    1 # Stop the simulation at deadlock (1=on (default), 0=off)
-gpgpu_ptx_instruction_classification                    0 # if enabled will classify ptx instruction types per kernel (Max 255 kernels now)
-gpgpu_ptx_sim_mode                     0 # Select between Performance (default) or Functional simulation (1)
-gpgpu_clock_domains 1132.0:1132.0:1132.0:850.0 # Clock Domain Frequencies in MhZ {<Core Clock>:<ICNT Clock>:<L2 Clock>:<DRAM Clock>}
-gpgpu_max_concurrent_kernel                    8 # maximum kernels that can run concurrently on GPU
-gpgpu_cflog_interval                    0 # Interval between each snapshot in control flow logger
-visualizer_enabled                     0 # Turn on visualizer output (1=On, 0=Off)
-visualizer_outputfile                 NULL # Specifies the output log file for visualizer
-visualizer_zlevel                      6 # Compression level of the visualizer output log (0=no comp, 9=highest)
-gpgpu_stack_size_limit                 1024 # GPU thread stack size
-gpgpu_heap_size_limit              8388608 # GPU malloc heap size b97825bda7f7e03eaab848a3ed327d87  /root/gpgpu-sim_distribution/madConv/vectorAdd
Extracting PTX file and ptxas options    1: vectorAdd.1.sm_30.ptx -arch=sm_30

-gpgpu_runtime_sync_depth_limit                    2 # GPU device runtime synchronize depth
-gpgpu_runtime_pending_launch_count_limit                 2048 # GPU device runtime pending launch count
-trace_enabled                          0 # Turn on traces
-trace_components                    none # comma seperated list of traces to enable. Complete list found in trace_streams.tup. Default none
-trace_sampling_core                    0 # The core which is printed using CORE_DPRINTF. Default 0
-trace_sampling_memory_partition                   -1 # The memory partition which is printed using MEMPART_DPRINTF. Default -1 (i.e. all)
-enable_ptx_file_line_stats                    1 # Turn on PTX source line statistic profiling. (1 = On)
-ptx_line_stats_filename gpgpu_inst_stats.txt # Output file for PTX source line statistics.
-gpgpu_kernel_launch_latency                 5000 # Kernel launch latency in cycles. Default: 0
-gpgpu_cdp_enabled                      0 # Turn on CDP
-gpgpu_TB_launch_latency                    0 # thread block launch latency in cycles. Default: 0
DRAM Timing Options:
nbk                                    16 # number of banks
CCD                                     1 # column to column delay
RRD                                     3 # minimal delay between activation of rows in different banks
RCD                                    12 # row to column delay
RAS                                    28 # time needed to activate row
RP                                     12 # time needed to precharge (deactivate) row
RC                                     40 # row cycle time
CDLR                                    3 # switching from write to read (changes tWTR)
WR                                     10 # last data-in to row precharge
CL                                     12 # CAS latency
WL                                      2 # Write latency
nbkgrp                                  4 # number of bank groups
CCDL                                    2 # column to column delay between accesses to different bank groups
RTPL                                    3 # read to precharge delay between accesses to different bank groups
Total number of memory sub partition = 64
addr_dec_mask[CHIP]  = 0000000000001f00 	high:13 low:8
addr_dec_mask[BK]    = 00000000000e2000 	high:20 low:13
addr_dec_mask[ROW]   = 00000001fff00000 	high:33 low:20
addr_dec_mask[COL]   = 000000000001c0ff 	high:17 low:0
addr_dec_mask[BURST] = 000000000000001f 	high:5 low:0
sub_partition_id_mask = 0000000000002000
GPGPU-Sim uArch: clock freqs: 1132000000.000000:1132000000.000000:1132000000.000000:850000000.000000
GPGPU-Sim uArch: clock periods: 0.00000000088339222615:0.00000000088339222615:0.00000000088339222615:0.00000000117647058824
*** Initializing Memory Statistics ***
GPGPU-Sim uArch: performance model initialization complete.
self exe links to: /root/gpgpu-sim_distribution/madConv/vectorAdd
self exe links to: /root/gpgpu-sim_distribution/madConv/vectorAdd
10.1
GPGPU-Sim PTX: __cudaRegisterFatBinary, fat_cubin_handle = 1, filename=default
self exe links to: /root/gpgpu-sim_distribution/madConv/vectorAdd
Running md5sum using "md5sum /root/gpgpu-sim_distribution/madConv/vectorAdd "
self exe links to: /root/gpgpu-sim_distribution/madConv/vectorAdd
Extracting specific PTX file named vectorAdd.1.sm_30.ptx 
GPGPU-Sim PTX: __cudaRegisterFunction _Z13conv2d_kernelPfS_S_iii : hostFun 0x0x561a68e03000, fat_cubin_handle = 1
GPGPU-Sim PTX: Parsing vectorAdd.1.sm_30.ptx
GPGPU-Sim PTX: instruction assembly for function '_Z13conv2d_kernelPfS_S_iii'...   done.
GPGPU-Sim PTX: finished parsing EMBEDDED .ptx file vectorAdd.1.sm_30.ptx
GPGPU-Sim PTX: loading globals with explicit initializers... 
GPGPU-Sim PTX: finished loading globals (0 bytes total).
GPGPU-Sim PTX: loading constants with explicit initializers...  done.
GPGPU-Sim PTX: Loading PTXInfo from vectorAdd.1.sm_30.ptx
GPGPU-Sim PTX: Kernel '_Z13conv2d_kernelPfS_S_iii' : regs=23, lmem=0, smem=0, cmem=356
event update
GPGPU-Sim PTX: Setting up arguments for 8 bytes starting at 0x7fff79c521a8..
GPGPU-Sim PTX: Setting up arguments for 8 bytes starting at 0x7fff79c521a0..
GPGPU-Sim PTX: Setting up arguments for 8 bytes starting at 0x7fff79c52198..
GPGPU-Sim PTX: Setting up arguments for 4 bytes starting at 0x7fff79c52194..
GPGPU-Sim PTX: Setting up arguments for 4 bytes starting at 0x7fff79c52190..
GPGPU-Sim PTX: Setting up arguments for 4 bytes starting at 0x7fff79c5218c..

GPGPU-Sim PTX: cudaLaunch for 0x0x561a68e03000 (mode=performance simulation) on stream 0
GPGPU-Sim PTX: finding reconvergence points for '_Z13conv2d_kernelPfS_S_iii'...
GPGPU-Sim PTX: Finding dominators for '_Z13conv2d_kernelPfS_S_iii'...
GPGPU-Sim PTX: Finding immediate dominators for '_Z13conv2d_kernelPfS_S_iii'...
GPGPU-Sim PTX: Finding postdominators for '_Z13conv2d_kernelPfS_S_iii'...
GPGPU-Sim PTX: Finding immediate postdominators for '_Z13conv2d_kernelPfS_S_iii'...
GPGPU-Sim PTX: pre-decoding instructions for '_Z13conv2d_kernelPfS_S_iii'...
GPGPU-Sim PTX: reconvergence points for _Z13conv2d_kernelPfS_S_iii...
GPGPU-Sim PTX:  1 (potential) branch divergence @  PC=0x0b0 (vectorAdd.1.sm_30.ptx:52) @%p3 bra BB0_38;
GPGPU-Sim PTX:    immediate post dominator      @  PC=0x5a8 (vectorAdd.1.sm_30.ptx:270) ret;
GPGPU-Sim PTX:  2 (potential) branch divergence @  PC=0x0c8 (vectorAdd.1.sm_30.ptx:56) @%p4 bra BB0_37;
GPGPU-Sim PTX:    immediate post dominator      @  PC=0x580 (vectorAdd.1.sm_30.ptx:263) mad.lo.s32 %r76, %r28, %r23, %r32;
GPGPU-Sim PTX:  3 (potential) branch divergence @  PC=0x110 (vectorAdd.1.sm_30.ptx:68) @%p5 bra BB0_4;
GPGPU-Sim PTX:    immediate post dominator      @  PC=0x3a0 (vectorAdd.1.sm_30.ptx:180) setp.lt.u32%p27, %r24, 4;
GPGPU-Sim PTX:  4 (potential) branch divergence @  PC=0x120 (vectorAdd.1.sm_30.ptx:71) @%p6 bra BB0_6;
GPGPU-Sim PTX:    immediate post dominator      @  PC=0x2d0 (vectorAdd.1.sm_30.ptx:144) setp.lt.s32%p21, %r7, 0;
GPGPU-Sim PTX:  5 (potential) branch divergence @  PC=0x128 (vectorAdd.1.sm_30.ptx:72) bra.uni BB0_7;
GPGPU-Sim PTX:    immediate post dominator      @  PC=0x160 (vectorAdd.1.sm_30.ptx:85) setp.eq.s32%p7, %r47, 2;
GPGPU-Sim PTX:  6 (potential) branch divergence @  PC=0x138 (vectorAdd.1.sm_30.ptx:76) bra.uni BB0_15;
GPGPU-Sim PTX:    immediate post dominator      @  PC=0x2d0 (vectorAdd.1.sm_30.ptx:144) setp.lt.s32%p21, %r7, 0;
GPGPU-Sim PTX:  7 (potential) branch divergence @  PC=0x158 (vectorAdd.1.sm_30.ptx:82) bra.uni BB0_21;
GPGPU-Sim PTX:    immediate post dominator      @  PC=0x3a0 (vectorAdd.1.sm_30.ptx:180) setp.lt.u32%p27, %r24, 4;
GPGPU-Sim PTX:  8 (potential) branch divergence @  PC=0x168 (vectorAdd.1.sm_30.ptx:86) @%p7 bra BB0_8;
GPGPU-Sim PTX:    immediate post dominator      @  PC=0x228 (vectorAdd.1.sm_30.ptx:117) setp.lt.s32%p15, %r7, 0;
GPGPU-Sim PTX:  9 (potential) branch divergence @  PC=0x170 (vectorAdd.1.sm_30.ptx:87) bra.uni BB0_9;
GPGPU-Sim PTX:    immediate post dominator      @  PC=0x188 (vectorAdd.1.sm_30.ptx:94) setp.lt.s32%p8, %r7, 0;
GPGPU-Sim PTX: 10 (potential) branch divergence @  PC=0x180 (vectorAdd.1.sm_30.ptx:91) bra.uni BB0_11;
GPGPU-Sim PTX:    immediate post dominator      @  PC=0x228 (vectorAdd.1.sm_30.ptx:117) setp.lt.s32%p15, %r7, 0;
GPGPU-Sim PTX: 11 (potential) branch divergence @  PC=0x1c8 (vectorAdd.1.sm_30.ptx:102) @%p14 bra BB0_11;
GPGPU-Sim PTX:    immediate post dominator      @  PC=0x228 (vectorAdd.1.sm_30.ptx:117) setp.lt.s32%p15, %r7, 0;
GPGPU-Sim PTX: 12 (potential) branch divergence @  PC=0x240 (vectorAdd.1.sm_30.ptx:120) @%p17 bra BB0_14;
GPGPU-Sim PTX:    immediate post dominator      @  PC=0x2c8 (vectorAdd.1.sm_30.ptx:141) add.s32 %r79, %r78, 1;
GPGPU-Sim PTX: 13 (potential) branch divergence @  PC=0x268 (vectorAdd.1.sm_30.ptx:126) @%p20 bra BB0_14;
GPGPU-Sim PTX:    immediate post dominator      @  PC=0x2c8 (vectorAdd.1.sm_30.ptx:141) add.s32 %r79, %r78, 1;
GPGPU-Sim PTX: 14 (potential) branch divergence @  PC=0x2e8 (vectorAdd.1.sm_30.ptx:147) @%p23 bra BB0_16;
GPGPU-Sim PTX:    immediate post dominator      @  PC=0x390 (vectorAdd.1.sm_30.ptx:176) add.s32 %r82, %r79, 1;
GPGPU-Sim PTX: 15 (potential) branch divergence @  PC=0x310 (vectorAdd.1.sm_30.ptx:153) @%p26 bra BB0_18;
GPGPU-Sim PTX:    immediate post dominator      @  PC=0x390 (vectorAdd.1.sm_30.ptx:176) add.s32 %r82, %r79, 1;
GPGPU-Sim PTX: 16 (potential) branch divergence @  PC=0x370 (vectorAdd.1.sm_30.ptx:166) bra.uni BB0_20;
GPGPU-Sim PTX:    immediate post dominator      @  PC=0x390 (vectorAdd.1.sm_30.ptx:176) add.s32 %r82, %r79, 1;
GPGPU-Sim PTX: 17 (potential) branch divergence @  PC=0x380 (vectorAdd.1.sm_30.ptx:170) bra.uni BB0_20;
GPGPU-Sim PTX:    immediate post dominator      @  PC=0x390 (vectorAdd.1.sm_30.ptx:176) add.s32 %r82, %r79, 1;
GPGPU-Sim PTX: 18 (potential) branch divergence @  PC=0x3a8 (vectorAdd.1.sm_30.ptx:181) @%p27 bra BB0_36;
GPGPU-Sim PTX:    immediate post dominator      @  PC=0x568 (vectorAdd.1.sm_30.ptx:258) add.s32 %r77, %r77, 1;
GPGPU-Sim PTX: 19 (potential) branch divergence @  PC=0x420 (vectorAdd.1.sm_30.ptx:199) @%p30 bra BB0_26;
GPGPU-Sim PTX:    immediate post dominator      @  PC=0x460 (vectorAdd.1.sm_30.ptx:211) @%p30 bra BB0_29;
GPGPU-Sim PTX: 20 (potential) branch divergence @  PC=0x440 (vectorAdd.1.sm_30.ptx:204) @%p33 bra BB0_26;
GPGPU-Sim PTX:    immediate post dominator      @  PC=0x460 (vectorAdd.1.sm_30.ptx:211) @%p30 bra BB0_29;
GPGPU-Sim PTX: 21 (potential) branch divergence @  PC=0x460 (vectorAdd.1.sm_30.ptx:211) @%p30 bra BB0_29;
GPGPU-Sim PTX:    immediate post dominator      @  PC=0x4a8 (vectorAdd.1.sm_30.ptx:224) @%p30 bra BB0_32;
GPGPU-Sim PTX: 22 (potential) branch divergence @  PC=0x488 (vectorAdd.1.sm_30.ptx:217) @%p39 bra BB0_29;
GPGPU-Sim PTX:    immediate post dominator      @  PC=0x4a8 (vectorAdd.1.sm_30.ptx:224) @%p30 bra BB0_32;
GPGPU-Sim PTX: 23 (potential) branch divergence @  PC=0x4a8 (vectorAdd.1.sm_30.ptx:224) @%p30 bra BB0_32;
GPGPU-Sim PTX:    immediate post dominator      @  PC=0x4f0 (vectorAdd.1.sm_30.ptx:237) @%p30 bra BB0_35;
GPGPU-Sim PTX: 24 (potential) branch divergence @  PC=0x4d0 (vectorAdd.1.sm_30.ptx:230) @%p45 bra BB0_32;
GPGPU-Sim PTX:    immediate post dominator      @  PC=0x4f0 (vectorAdd.1.sm_30.ptx:237) @%p30 bra BB0_35;
GPGPU-Sim PTX: 25 (potential) branch divergence @  PC=0x4f0 (vectorAdd.1.sm_30.ptx:237) @%p30 bra BB0_35;
GPGPU-Sim PTX:    immediate post dominator      @  PC=0x538 (vectorAdd.1.sm_30.ptx:250) add.s64 %rd36, %rd36, 16;
GPGPU-Sim PTX: 26 (potential) branch divergence @  PC=0x518 (vectorAdd.1.sm_30.ptx:243) @%p51 bra BB0_35;
GPGPU-Sim PTX:    immediate post dominator      @  PC=0x538 (vectorAdd.1.sm_30.ptx:250) add.s64 %rd36, %rd36, 16;
GPGPU-Sim PTX: 27 (potential) branch divergence @  PC=0x560 (vectorAdd.1.sm_30.ptx:255) @%p52 bra BB0_23;
GPGPU-Sim PTX:    immediate post dominator      @  PC=0x568 (vectorAdd.1.sm_30.ptx:258) add.s32 %r77, %r77, 1;
GPGPU-Sim PTX: 28 (potential) branch divergence @  PC=0x578 (vectorAdd.1.sm_30.ptx:260) @%p53 bra BB0_3;
GPGPU-Sim PTX:    immediate post dominator      @  PC=0x580 (vectorAdd.1.sm_30.ptx:263) mad.lo.s32 %r76, %r28, %r23, %r32;
GPGPU-Sim PTX: ... end of reconvergence points for _Z13conv2d_kernelPfS_S_iii
GPGPU-Sim PTX: ... done pre-decoding instructions for '_Z13conv2d_kernelPfS_S_iii'.
GPGPU-Sim PTX: pushing kernel '_Z13conv2d_kernelPfS_S_iii' to stream 0, gridDim= (16,16,1) blockDim = (16,16,1) 
GPGPU-Sim uArch: Shader 0 bind to kernel 1 '_Z13conv2d_kernelPfS_S_iii'
GPGPU-Sim uArch: CTA/core = 8, limited by: threads
GPGPU-Sim: Reconfigure L1 cache to 128KB
GPGPU-Sim uArch: Shader 1 bind to kernel 1 '_Z13conv2d_kernelPfS_S_iii'
GPGPU-Sim uArch: Shader 2 bind to kernel 1 '_Z13conv2d_kernelPfS_S_iii'
GPGPU-Sim uArch: Shader 3 bind to kernel 1 '_Z13conv2d_kernelPfS_S_iii'
GPGPU-Sim uArch: Shader 4 bind to kernel 1 '_Z13conv2d_kernelPfS_S_iii'
GPGPU-Sim uArch: Shader 5 bind to kernel 1 '_Z13conv2d_kernelPfS_S_iii'
GPGPU-Sim uArch: Shader 6 bind to kernel 1 '_Z13conv2d_kernelPfS_S_iii'
GPGPU-Sim uArch: Shader 7 bind to kernel 1 '_Z13conv2d_kernelPfS_S_iii'
GPGPU-Sim uArch: Shader 8 bind to kernel 1 '_Z13conv2d_kernelPfS_S_iii'
GPGPU-Sim uArch: Shader 9 bind to kernel 1 '_Z13conv2d_kernelPfS_S_iii'
GPGPU-Sim uArch: Shader 10 bind to kernel 1 '_Z13conv2d_kernelPfS_S_iii'
GPGPU-Sim uArch: Shader 11 bind to kernel 1 '_Z13conv2d_kernelPfS_S_iii'
GPGPU-Sim uArch: Shader 12 bind to kernel 1 '_Z13conv2d_kernelPfS_S_iii'
GPGPU-Sim uArch: Shader 13 bind to kernel 1 '_Z13conv2d_kernelPfS_S_iii'
GPGPU-Sim uArch: Shader 14 bind to kernel 1 '_Z13conv2d_kernelPfS_S_iii'
GPGPU-Sim uArch: Shader 15 bind to kernel 1 '_Z13conv2d_kernelPfS_S_iii'
GPGPU-Sim uArch: Shader 16 bind to kernel 1 '_Z13conv2d_kernelPfS_S_iii'
GPGPU-Sim uArch: Shader 17 bind to kernel 1 '_Z13conv2d_kernelPfS_S_iii'
GPGPU-Sim uArch: Shader 18 bind to kernel 1 '_Z13conv2d_kernelPfS_S_iii'
GPGPU-Sim uArch: Shader 19 bind to kernel 1 '_Z13conv2d_kernelPfS_S_iii'
GPGPU-Sim uArch: Shader 20 bind to kernel 1 '_Z13conv2d_kernelPfS_S_iii'
GPGPU-Sim uArch: Shader 21 bind to kernel 1 '_Z13conv2d_kernelPfS_S_iii'
GPGPU-Sim uArch: Shader 22 bind to kernel 1 '_Z13conv2d_kernelPfS_S_iii'
GPGPU-Sim uArch: Shader 23 bind to kernel 1 '_Z13conv2d_kernelPfS_S_iii'
GPGPU-Sim uArch: Shader 24 bind to kernel 1 '_Z13conv2d_kernelPfS_S_iii'
GPGPU-Sim uArch: Shader 25 bind to kernel 1 '_Z13conv2d_kernelPfS_S_iii'
GPGPU-Sim uArch: Shader 26 bind to kernel 1 '_Z13conv2d_kernelPfS_S_iii'
GPGPU-Sim uArch: Shader 27 bind to kernel 1 '_Z13conv2d_kernelPfS_S_iii'
GPGPU-Sim uArch: Shader 28 bind to kernel 1 '_Z13conv2d_kernelPfS_S_iii'
GPGPU-Sim uArch: Shader 29 bind to kernel 1 '_Z13conv2d_kernelPfS_S_iii'
GPGPU-Sim uArch: Shader 30 bind to kernel 1 '_Z13conv2d_kernelPfS_S_iii'
GPGPU-Sim uArch: Shader 31 bind to kernel 1 '_Z13conv2d_kernelPfS_S_iii'
GPGPU-Sim uArch: Shader 32 bind to kernel 1 '_Z13conv2d_kernelPfS_S_iii'
GPGPU-Sim uArch: Shader 33 bind to kernel 1 '_Z13conv2d_kernelPfS_S_iii'
GPGPU-Sim uArch: Shader 34 bind to kernel 1 '_Z13conv2d_kernelPfS_S_iii'
GPGPU-Sim uArch: Shader 35 bind to kernel 1 '_Z13conv2d_kernelPfS_S_iii'
GPGPU-Sim uArch: Shader 36 bind to kernel 1 '_Z13conv2d_kernelPfS_S_iii'
GPGPU-Sim uArch: Shader 37 bind to kernel 1 '_Z13conv2d_kernelPfS_S_iii'
GPGPU-Sim uArch: Shader 38 bind to kernel 1 '_Z13conv2d_kernelPfS_S_iii'
GPGPU-Sim uArch: Shader 39 bind to kernel 1 '_Z13conv2d_kernelPfS_S_iii'
GPGPU-Sim uArch: Shader 40 bind to kernel 1 '_Z13conv2d_kernelPfS_S_iii'
GPGPU-Sim uArch: Shader 41 bind to kernel 1 '_Z13conv2d_kernelPfS_S_iii'
GPGPU-Sim uArch: Shader 42 bind to kernel 1 '_Z13conv2d_kernelPfS_S_iii'
GPGPU-Sim uArch: Shader 43 bind to kernel 1 '_Z13conv2d_kernelPfS_S_iii'
GPGPU-Sim uArch: Shader 44 bind to kernel 1 '_Z13conv2d_kernelPfS_S_iii'
GPGPU-Sim uArch: Shader 45 bind to kernel 1 '_Z13conv2d_kernelPfS_S_iii'
GPGPU-Sim uArch: Shader 46 bind to kernel 1 '_Z13conv2d_kernelPfS_S_iii'
GPGPU-Sim uArch: Shader 47 bind to kernel 1 '_Z13conv2d_kernelPfS_S_iii'
GPGPU-Sim uArch: Shader 48 bind to kernel 1 '_Z13conv2d_kernelPfS_S_iii'
GPGPU-Sim uArch: Shader 49 bind to kernel 1 '_Z13conv2d_kernelPfS_S_iii'
GPGPU-Sim uArch: Shader 50 bind to kernel 1 '_Z13conv2d_kernelPfS_S_iii'
GPGPU-Sim uArch: Shader 51 bind to kernel 1 '_Z13conv2d_kernelPfS_S_iii'
GPGPU-Sim uArch: Shader 52 bind to kernel 1 '_Z13conv2d_kernelPfS_S_iii'
GPGPU-Sim uArch: Shader 53 bind to kernel 1 '_Z13conv2d_kernelPfS_S_iii'
GPGPU-Sim uArch: Shader 54 bind to kernel 1 '_Z13conv2d_kernelPfS_S_iii'
GPGPU-Sim uArch: Shader 55 bind to kernel 1 '_Z13conv2d_kernelPfS_S_iii'
GPGPU-Sim uArch: Shader 56 bind to kernel 1 '_Z13conv2d_kernelPfS_S_iii'
GPGPU-Sim uArch: Shader 57 bind to kernel 1 '_Z13conv2d_kernelPfS_S_iii'
GPGPU-Sim uArch: Shader 58 bind to kernel 1 '_Z13conv2d_kernelPfS_S_iii'
GPGPU-Sim uArch: Shader 59 bind to kernel 1 '_Z13conv2d_kernelPfS_S_iii'
GPGPU-Sim uArch: Shader 60 bind to kernel 1 '_Z13conv2d_kernelPfS_S_iii'
GPGPU-Sim uArch: Shader 61 bind to kernel 1 '_Z13conv2d_kernelPfS_S_iii'
GPGPU-Sim uArch: Shader 62 bind to kernel 1 '_Z13conv2d_kernelPfS_S_iii'
GPGPU-Sim uArch: Shader 63 bind to kernel 1 '_Z13conv2d_kernelPfS_S_iii'
GPGPU-Sim uArch: Shader 64 bind to kernel 1 '_Z13conv2d_kernelPfS_S_iii'
GPGPU-Sim uArch: Shader 65 bind to kernel 1 '_Z13conv2d_kernelPfS_S_iii'
GPGPU-Sim uArch: Shader 66 bind to kernel 1 '_Z13conv2d_kernelPfS_S_iii'
GPGPU-Sim uArch: Shader 67 bind to kernel 1 '_Z13conv2d_kernelPfS_S_iii'
GPGPU-Sim uArch: Shader 68 bind to kernel 1 '_Z13conv2d_kernelPfS_S_iii'
GPGPU-Sim uArch: Shader 69 bind to kernel 1 '_Z13conv2d_kernelPfS_S_iii'
GPGPU-Sim uArch: Shader 70 bind to kernel 1 '_Z13conv2d_kernelPfS_S_iii'
GPGPU-Sim uArch: Shader 71 bind to kernel 1 '_Z13conv2d_kernelPfS_S_iii'
GPGPU-Sim uArch: Shader 72 bind to kernel 1 '_Z13conv2d_kernelPfS_S_iii'
GPGPU-Sim uArch: Shader 73 bind to kernel 1 '_Z13conv2d_kernelPfS_S_iii'
GPGPU-Sim uArch: Shader 74 bind to kernel 1 '_Z13conv2d_kernelPfS_S_iii'
GPGPU-Sim uArch: Shader 75 bind to kernel 1 '_Z13conv2d_kernelPfS_S_iii'
GPGPU-Sim uArch: Shader 76 bind to kernel 1 '_Z13conv2d_kernelPfS_S_iii'
GPGPU-Sim uArch: Shader 77 bind to kernel 1 '_Z13conv2d_kernelPfS_S_iii'
GPGPU-Sim uArch: Shader 78 bind to kernel 1 '_Z13conv2d_kernelPfS_S_iii'
GPGPU-Sim uArch: Shader 79 bind to kernel 1 '_Z13conv2d_kernelPfS_S_iii'
Destroy streams for kernel 1: size 0
kernel_name = _Z13conv2d_kernelPfS_S_iii 
kernel_launch_uid = 1 
gpu_sim_cycle = 12113
gpu_sim_insn = 27958440
gpu_ipc =    2308.1350
gpu_tot_sim_cycle = 12113
gpu_tot_sim_insn = 27958440
gpu_tot_ipc =    2308.1350
gpu_tot_issued_cta = 256
gpu_occupancy = 32.3219% 
gpu_tot_occupancy = 32.3219% 
max_total_param_size = 0
gpu_stall_dramfull = 0
gpu_stall_icnt2sh    = 0
partiton_level_parallism =       2.3202
partiton_level_parallism_total  =       2.3202
partiton_level_parallism_util =       5.7192
partiton_level_parallism_util_total  =       5.7192
L2_BW  =      84.0452 GB/Sec
L2_BW_total  =      84.0452 GB/Sec
gpu_total_sim_rate=607792

========= Core cache stats =========
L1I_cache:
	L1I_total_cache_accesses = 0
	L1I_total_cache_misses = 0
	L1I_total_cache_pending_hits = 0
	L1I_total_cache_reservation_fails = 0
L1D_cache:
	L1D_cache_core[0]: Access = 4686, Miss = 376, Miss_rate = 0.080, Pending_hits = 0, Reservation_fails = 0
	L1D_cache_core[1]: Access = 5314, Miss = 451, Miss_rate = 0.085, Pending_hits = 0, Reservation_fails = 0
	L1D_cache_core[2]: Access = 5314, Miss = 451, Miss_rate = 0.085, Pending_hits = 0, Reservation_fails = 0
	L1D_cache_core[3]: Access = 5314, Miss = 451, Miss_rate = 0.085, Pending_hits = 0, Reservation_fails = 0
	L1D_cache_core[4]: Access = 5314, Miss = 451, Miss_rate = 0.085, Pending_hits = 0, Reservation_fails = 0
	L1D_cache_core[5]: Access = 5314, Miss = 451, Miss_rate = 0.085, Pending_hits = 0, Reservation_fails = 0
	L1D_cache_core[6]: Access = 5314, Miss = 451, Miss_rate = 0.085, Pending_hits = 0, Reservation_fails = 0
	L1D_cache_core[7]: Access = 5314, Miss = 451, Miss_rate = 0.085, Pending_hits = 0, Reservation_fails = 0
	L1D_cache_core[8]: Access = 5314, Miss = 451, Miss_rate = 0.085, Pending_hits = 0, Reservation_fails = 0
	L1D_cache_core[9]: Access = 5314, Miss = 451, Miss_rate = 0.085, Pending_hits = 0, Reservation_fails = 0
	L1D_cache_core[10]: Access = 5314, Miss = 451, Miss_rate = 0.085, Pending_hits = 0, Reservation_fails = 0
	L1D_cache_core[11]: Access = 5314, Miss = 451, Miss_rate = 0.085, Pending_hits = 0, Reservation_fails = 0
	L1D_cache_core[12]: Access = 5314, Miss = 451, Miss_rate = 0.085, Pending_hits = 0, Reservation_fails = 0
	L1D_cache_core[13]: Access = 5314, Miss = 451, Miss_rate = 0.085, Pending_hits = 0, Reservation_fails = 0
	L1D_cache_core[14]: Access = 5314, Miss = 451, Miss_rate = 0.085, Pending_hits = 0, Reservation_fails = 0
	L1D_cache_core[15]: Access = 4686, Miss = 374, Miss_rate = 0.080, Pending_hits = 0, Reservation_fails = 0
	L1D_cache_core[16]: Access = 3576, Miss = 323, Miss_rate = 0.090, Pending_hits = 0, Reservation_fails = 0
	L1D_cache_core[17]: Access = 4056, Miss = 378, Miss_rate = 0.093, Pending_hits = 0, Reservation_fails = 0
	L1D_cache_core[18]: Access = 4056, Miss = 377, Miss_rate = 0.093, Pending_hits = 0, Reservation_fails = 0
	L1D_cache_core[19]: Access = 4056, Miss = 379, Miss_rate = 0.093, Pending_hits = 0, Reservation_fails = 0
	L1D_cache_core[20]: Access = 4056, Miss = 377, Miss_rate = 0.093, Pending_hits = 0, Reservation_fails = 0
	L1D_cache_core[21]: Access = 4056, Miss = 378, Miss_rate = 0.093, Pending_hits = 0, Reservation_fails = 0
	L1D_cache_core[22]: Access = 4056, Miss = 379, Miss_rate = 0.093, Pending_hits = 0, Reservation_fails = 0
	L1D_cache_core[23]: Access = 4056, Miss = 377, Miss_rate = 0.093, Pending_hits = 0, Reservation_fails = 0
	L1D_cache_core[24]: Access = 4056, Miss = 375, Miss_rate = 0.092, Pending_hits = 0, Reservation_fails = 0
	L1D_cache_core[25]: Access = 4056, Miss = 374, Miss_rate = 0.092, Pending_hits = 0, Reservation_fails = 0
	L1D_cache_core[26]: Access = 4056, Miss = 376, Miss_rate = 0.093, Pending_hits = 0, Reservation_fails = 0
	L1D_cache_core[27]: Access = 4056, Miss = 376, Miss_rate = 0.093, Pending_hits = 0, Reservation_fails = 0
	L1D_cache_core[28]: Access = 4056, Miss = 377, Miss_rate = 0.093, Pending_hits = 0, Reservation_fails = 0
	L1D_cache_core[29]: Access = 4056, Miss = 376, Miss_rate = 0.093, Pending_hits = 0, Reservation_fails = 0
	L1D_cache_core[30]: Access = 4056, Miss = 380, Miss_rate = 0.094, Pending_hits = 0, Reservation_fails = 0
	L1D_cache_core[31]: Access = 3576, Miss = 322, Miss_rate = 0.090, Pending_hits = 0, Reservation_fails = 0
	L1D_cache_core[32]: Access = 3576, Miss = 322, Miss_rate = 0.090, Pending_hits = 0, Reservation_fails = 0
	L1D_cache_core[33]: Access = 4056, Miss = 376, Miss_rate = 0.093, Pending_hits = 0, Reservation_fails = 0
	L1D_cache_core[34]: Access = 4056, Miss = 374, Miss_rate = 0.092, Pending_hits = 0, Reservation_fails = 0
	L1D_cache_core[35]: Access = 4056, Miss = 384, Miss_rate = 0.095, Pending_hits = 0, Reservation_fails = 0
	L1D_cache_core[36]: Access = 4056, Miss = 376, Miss_rate = 0.093, Pending_hits = 0, Reservation_fails = 0
	L1D_cache_core[37]: Access = 4056, Miss = 378, Miss_rate = 0.093, Pending_hits = 0, Reservation_fails = 0
	L1D_cache_core[38]: Access = 4056, Miss = 376, Miss_rate = 0.093, Pending_hits = 0, Reservation_fails = 0
	L1D_cache_core[39]: Access = 4056, Miss = 378, Miss_rate = 0.093, Pending_hits = 0, Reservation_fails = 0
	L1D_cache_core[40]: Access = 4056, Miss = 375, Miss_rate = 0.092, Pending_hits = 0, Reservation_fails = 0
	L1D_cache_core[41]: Access = 4056, Miss = 377, Miss_rate = 0.093, Pending_hits = 0, Reservation_fails = 0
	L1D_cache_core[42]: Access = 4056, Miss = 374, Miss_rate = 0.092, Pending_hits = 0, Reservation_fails = 0
	L1D_cache_core[43]: Access = 4056, Miss = 376, Miss_rate = 0.093, Pending_hits = 0, Reservation_fails = 0
	L1D_cache_core[44]: Access = 4056, Miss = 379, Miss_rate = 0.093, Pending_hits = 0, Reservation_fails = 0
	L1D_cache_core[45]: Access = 4056, Miss = 374, Miss_rate = 0.092, Pending_hits = 0, Reservation_fails = 0
	L1D_cache_core[46]: Access = 4056, Miss = 376, Miss_rate = 0.093, Pending_hits = 0, Reservation_fails = 0
	L1D_cache_core[47]: Access = 3576, Miss = 317, Miss_rate = 0.089, Pending_hits = 0, Reservation_fails = 0
	L1D_cache_core[48]: Access = 3576, Miss = 321, Miss_rate = 0.090, Pending_hits = 0, Reservation_fails = 0
	L1D_cache_core[49]: Access = 4056, Miss = 379, Miss_rate = 0.093, Pending_hits = 0, Reservation_fails = 0
	L1D_cache_core[50]: Access = 4056, Miss = 372, Miss_rate = 0.092, Pending_hits = 0, Reservation_fails = 0
	L1D_cache_core[51]: Access = 4056, Miss = 378, Miss_rate = 0.093, Pending_hits = 0, Reservation_fails = 0
	L1D_cache_core[52]: Access = 4056, Miss = 378, Miss_rate = 0.093, Pending_hits = 0, Reservation_fails = 0
	L1D_cache_core[53]: Access = 4056, Miss = 374, Miss_rate = 0.092, Pending_hits = 0, Reservation_fails = 0
	L1D_cache_core[54]: Access = 4056, Miss = 379, Miss_rate = 0.093, Pending_hits = 0, Reservation_fails = 0
	L1D_cache_core[55]: Access = 4056, Miss = 376, Miss_rate = 0.093, Pending_hits = 0, Reservation_fails = 0
	L1D_cache_core[56]: Access = 4056, Miss = 377, Miss_rate = 0.093, Pending_hits = 0, Reservation_fails = 0
	L1D_cache_core[57]: Access = 4056, Miss = 379, Miss_rate = 0.093, Pending_hits = 0, Reservation_fails = 0
	L1D_cache_core[58]: Access = 4056, Miss = 380, Miss_rate = 0.094, Pending_hits = 0, Reservation_fails = 0
	L1D_cache_core[59]: Access = 4056, Miss = 378, Miss_rate = 0.093, Pending_hits = 0, Reservation_fails = 0
	L1D_cache_core[60]: Access = 4056, Miss = 378, Miss_rate = 0.093, Pending_hits = 0, Reservation_fails = 0
	L1D_cache_core[61]: Access = 4056, Miss = 378, Miss_rate = 0.093, Pending_hits = 0, Reservation_fails = 0
	L1D_cache_core[62]: Access = 4056, Miss = 378, Miss_rate = 0.093, Pending_hits = 0, Reservation_fails = 0
	L1D_cache_core[63]: Access = 3576, Miss = 319, Miss_rate = 0.089, Pending_hits = 0, Reservation_fails = 0
	L1D_cache_core[64]: Access = 3576, Miss = 316, Miss_rate = 0.088, Pending_hits = 0, Reservation_fails = 0
	L1D_cache_core[65]: Access = 4056, Miss = 377, Miss_rate = 0.093, Pending_hits = 0, Reservation_fails = 0
	L1D_cache_core[66]: Access = 4056, Miss = 377, Miss_rate = 0.093, Pending_hits = 0, Reservation_fails = 0
	L1D_cache_core[67]: Access = 4056, Miss = 381, Miss_rate = 0.094, Pending_hits = 0, Reservation_fails = 0
	L1D_cache_core[68]: Access = 4056, Miss = 378, Miss_rate = 0.093, Pending_hits = 0, Reservation_fails = 0
	L1D_cache_core[69]: Access = 4056, Miss = 381, Miss_rate = 0.094, Pending_hits = 0, Reservation_fails = 0
	L1D_cache_core[70]: Access = 4056, Miss = 377, Miss_rate = 0.093, Pending_hits = 0, Reservation_fails = 0
	L1D_cache_core[71]: Access = 4056, Miss = 375, Miss_rate = 0.092, Pending_hits = 0, Reservation_fails = 0
	L1D_cache_core[72]: Access = 4056, Miss = 379, Miss_rate = 0.093, Pending_hits = 0, Reservation_fails = 0
	L1D_cache_core[73]: Access = 4056, Miss = 380, Miss_rate = 0.094, Pending_hits = 0, Reservation_fails = 0
	L1D_cache_core[74]: Access = 4056, Miss = 382, Miss_rate = 0.094, Pending_hits = 0, Reservation_fails = 0
	L1D_cache_core[75]: Access = 4056, Miss = 383, Miss_rate = 0.094, Pending_hits = 0, Reservation_fails = 0
	L1D_cache_core[76]: Access = 4056, Miss = 383, Miss_rate = 0.094, Pending_hits = 0, Reservation_fails = 0
	L1D_cache_core[77]: Access = 4056, Miss = 384, Miss_rate = 0.095, Pending_hits = 0, Reservation_fails = 0
	L1D_cache_core[78]: Access = 4056, Miss = 379, Miss_rate = 0.093, Pending_hits = 0, Reservation_fails = 0
	L1D_cache_core[79]: Access = 3576, Miss = 319, Miss_rate = 0.089, Pending_hits = 0, Reservation_fails = 0
	L1D_total_cache_accesses = 339512
	L1D_total_cache_misses = 30775
	L1D_total_cache_miss_rate = 0.0906
	L1D_total_cache_pending_hits = 0
	L1D_total_cache_reservation_fails = 0
	L1D_cache_data_port_util = 0.610
	L1D_cache_fill_port_util = 0.039
L1C_cache:
	L1C_total_cache_accesses = 0
	L1C_total_cache_misses = 0
	L1C_total_cache_pending_hits = 0
	L1C_total_cache_reservation_fails = 0
L1T_cache:
	L1T_total_cache_accesses = 0
	L1T_total_cache_misses = 0
	L1T_total_cache_pending_hits = 0
	L1T_total_cache_reservation_fails = 0

Total_core_cache_stats:
	Total_core_cache_stats_breakdown[GLOBAL_ACC_R][HIT] = 308737
	Total_core_cache_stats_breakdown[GLOBAL_ACC_R][HIT_RESERVED] = 0
	Total_core_cache_stats_breakdown[GLOBAL_ACC_R][MISS] = 17144
	Total_core_cache_stats_breakdown[GLOBAL_ACC_R][RESERVATION_FAIL] = 0
	Total_core_cache_stats_breakdown[GLOBAL_ACC_R][SECTOR_MISS] = 5439
	Total_core_cache_stats_breakdown[LOCAL_ACC_R][HIT] = 0
	Total_core_cache_stats_breakdown[LOCAL_ACC_R][HIT_RESERVED] = 0
	Total_core_cache_stats_breakdown[LOCAL_ACC_R][MISS] = 0
	Total_core_cache_stats_breakdown[LOCAL_ACC_R][RESERVATION_FAIL] = 0
	Total_core_cache_stats_breakdown[LOCAL_ACC_R][SECTOR_MISS] = 0
	Total_core_cache_stats_breakdown[CONST_ACC_R][HIT] = 0
	Total_core_cache_stats_breakdown[CONST_ACC_R][HIT_RESERVED] = 0
	Total_core_cache_stats_breakdown[CONST_ACC_R][MISS] = 0
	Total_core_cache_stats_breakdown[CONST_ACC_R][RESERVATION_FAIL] = 0
	Total_core_cache_stats_breakdown[CONST_ACC_R][SECTOR_MISS] = 0
	Total_core_cache_stats_breakdown[TEXTURE_ACC_R][HIT] = 0
	Total_core_cache_stats_breakdown[TEXTURE_ACC_R][HIT_RESERVED] = 0
	Total_core_cache_stats_breakdown[TEXTURE_ACC_R][MISS] = 0
	Total_core_cache_stats_breakdown[TEXTURE_ACC_R][RESERVATION_FAIL] = 0
	Total_core_cache_stats_breakdown[TEXTURE_ACC_R][SECTOR_MISS] = 0
	Total_core_cache_stats_breakdown[GLOBAL_ACC_W][HIT] = 0
	Total_core_cache_stats_breakdown[GLOBAL_ACC_W][HIT_RESERVED] = 0
	Total_core_cache_stats_breakdown[GLOBAL_ACC_W][MISS] = 8192
	Total_core_cache_stats_breakdown[GLOBAL_ACC_W][RESERVATION_FAIL] = 0
	Total_core_cache_stats_breakdown[GLOBAL_ACC_W][SECTOR_MISS] = 0
	Total_core_cache_stats_breakdown[LOCAL_ACC_W][HIT] = 0
	Total_core_cache_stats_breakdown[LOCAL_ACC_W][HIT_RESERVED] = 0
	Total_core_cache_stats_breakdown[LOCAL_ACC_W][MISS] = 0
	Total_core_cache_stats_breakdown[LOCAL_ACC_W][RESERVATION_FAIL] = 0
	Total_core_cache_stats_breakdown[LOCAL_ACC_W][SECTOR_MISS] = 0
	Total_core_cache_stats_breakdown[L1_WRBK_ACC][HIT] = 0
	Total_core_cache_stats_breakdown[L1_WRBK_ACC][HIT_RESERVED] = 0
	Total_core_cache_stats_breakdown[L1_WRBK_ACC][MISS] = 0
	Total_core_cache_stats_breakdown[L1_WRBK_ACC][RESERVATION_FAIL] = 0
	Total_core_cache_stats_breakdown[L1_WRBK_ACC][SECTOR_MISS] = 0
	Total_core_cache_stats_breakdown[L2_WRBK_ACC][HIT] = 0
	Total_core_cache_stats_breakdown[L2_WRBK_ACC][HIT_RESERVED] = 0
	Total_core_cache_stats_breakdown[L2_WRBK_ACC][MISS] = 0
	Total_core_cache_stats_breakdown[L2_WRBK_ACC][RESERVATION_FAIL] = 0
	Total_core_cache_stats_breakdown[L2_WRBK_ACC][SECTOR_MISS] = 0
	Total_core_cache_stats_breakdown[INST_ACC_R][HIT] = 0
	Total_core_cache_stats_breakdown[INST_ACC_R][HIT_RESERVED] = 0
	Total_core_cache_stats_breakdown[INST_ACC_R][MISS] = 0
	Total_core_cache_stats_breakdown[INST_ACC_R][RESERVATION_FAIL] = 0
	Total_core_cache_stats_breakdown[INST_ACC_R][SECTOR_MISS] = 0
	Total_core_cache_stats_breakdown[L1_WR_ALLOC_R][HIT] = 0
	Total_core_cache_stats_breakdown[L1_WR_ALLOC_R][HIT_RESERVED] = 0
	Total_core_cache_stats_breakdown[L1_WR_ALLOC_R][MISS] = 0
	Total_core_cache_stats_breakdown[L1_WR_ALLOC_R][RESERVATION_FAIL] = 0
	Total_core_cache_stats_breakdown[L1_WR_ALLOC_R][SECTOR_MISS] = 0
	Total_core_cache_stats_breakdown[L2_WR_ALLOC_R][HIT] = 0
	Total_core_cache_stats_breakdown[L2_WR_ALLOC_R][HIT_RESERVED] = 0
	Total_core_cache_stats_breakdown[L2_WR_ALLOC_R][MISS] = 0
	Total_core_cache_stats_breakdown[L2_WR_ALLOC_R][RESERVATION_FAIL] = 0
	Total_core_cache_stats_breakdown[L2_WR_ALLOC_R][SECTOR_MISS] = 0
	Total_core_cache_stats_breakdown[GLOBAL_ACC_R][TOTAL_ACCESS] = 331320
	Total_core_cache_stats_breakdown[GLOBAL_ACC_W][TOTAL_ACCESS] = 8192

Total_core_cache_fail_stats:
ctas_completed 256, Shader 0 warp_id issue ditsribution:
warp_id:
0, 1, 2, 3, 4, 5, 6, 7, 8, 9, 10, 11, 12, 13, 14, 15, 16, 17, 18, 19, 20, 21, 22, 23, 24, 25, 26, 27, 28, 29, 30, 31, 
distro:
456, 501, 501, 501, 501, 501, 501, 501, 501, 501, 501, 501, 501, 501, 501, 501, 501, 501, 501, 501, 501, 501, 501, 501, 501, 501, 501, 501, 501, 501, 501, 456, 
gpgpu_n_tot_thrd_icount = 32481216
gpgpu_n_tot_w_icount = 1015038
gpgpu_n_stall_shd_mem = 235384
gpgpu_n_mem_read_local = 0
gpgpu_n_mem_write_local = 0
gpgpu_n_mem_read_global = 19912
gpgpu_n_mem_write_global = 8192
gpgpu_n_mem_texture = 0
gpgpu_n_mem_const = 0
gpgpu_n_load_insn  = 3246152
gpgpu_n_store_insn = 65536
gpgpu_n_shmem_insn = 0
gpgpu_n_sstarr_insn = 0
gpgpu_n_tex_insn = 0
gpgpu_n_const_mem_insn = 0
gpgpu_n_param_mem_insn = 393216
gpgpu_n_shmem_bkconflict = 0
gpgpu_n_cache_bkconflict = 0
gpgpu_n_intrawarp_mshr_merge = 0
gpgpu_n_cmem_portconflict = 0
gpgpu_stall_shd_mem[c_mem][resource_stall] = 0
gpgpu_stall_shd_mem[s_mem][bk_conf] = 0
gpgpu_stall_shd_mem[gl_mem][resource_stall] = 235384
gpgpu_stall_shd_mem[gl_mem][coal_stall] = 0
gpgpu_stall_shd_mem[gl_mem][data_port_stall] = 0
gpu_reg_bank_conflict_stalls = 0
Warp Occupancy Distribution:
Stall:313666	W0_Idle:219367	W0_Scoreboard:474893	W1:0	W2:2	W3:0	W4:636	W5:0	W6:0	W7:0	W8:0	W9:0	W10:0	W11:0	W12:0	W13:0	W14:30	W15:12	W16:1558	W17:0	W18:0	W19:0	W20:0	W21:0	W22:0	W23:0	W24:0	W25:0	W26:0	W27:0	W28:9540	W29:0	W30:3816	W31:0	W32:999444
single_issue_nums: WS0:253407	WS1:254112	WS2:254112	WS3:253407	
dual_issue_nums: WS0:0	WS1:0	WS2:0	WS3:0	
traffic_breakdown_coretomem[GLOBAL_ACC_R] = 159296 {8:19912,}
traffic_breakdown_coretomem[GLOBAL_ACC_W] = 327680 {40:8192,}
traffic_breakdown_memtocore[GLOBAL_ACC_R] = 796480 {40:19912,}
traffic_breakdown_memtocore[GLOBAL_ACC_W] = 65536 {8:8192,}
maxmflatency = 537 
max_icnt2mem_latency = 368 
maxmrqlatency = 0 
max_icnt2sh_latency = 28 
averagemflatency = 238 
avg_icnt2mem_latency = 74 
avg_icnt2sh_latency = 2 
mrq_lat_table:0 	0 	0 	0 	0 	0 	0 	0 	0 	0 	0 	0 	0 	0 	0 	0 	0 	0 	0 	0 	0 	0 	0 	0 	0 	0 	0 	0 	0 	0 	0 	0 	
dq_lat_table:0 	0 	0 	0 	0 	0 	0 	0 	0 	0 	0 	0 	0 	0 	0 	0 	0 	0 	0 	0 	0 	0 	0 	0 	0 	0 	0 	0 	0 	0 	0 	0 	
mf_lat_table:0 	0 	0 	0 	0 	0 	0 	19938 	8071 	95 	0 	0 	0 	0 	0 	0 	0 	0 	0 	0 	0 	0 	0 	0 	0 	0 	0 	0 	0 	0 	0 	0 	
icnt2mem_lat_table:0 	0 	0 	0 	16607 	1664 	3933 	4668 	1232 	0 	0 	0 	0 	0 	0 	0 	0 	0 	0 	0 	0 	0 	0 	0 	
icnt2sh_lat_table:0 	26269 	1378 	381 	76 	0 	0 	0 	0 	0 	0 	0 	0 	0 	0 	0 	0 	0 	0 	0 	0 	0 	0 	0 	
mf_lat_pw_table:0 	0 	0 	0 	0 	0 	0 	11 	2 	0 	0 	0 	0 	0 	0 	0 	0 	0 	0 	0 	0 	0 	0 	0 	0 	0 	0 	0 	0 	0 	0 	0 	
maximum concurrent accesses to same row:
dram[0]:         0         0         0         0         0         0         0         0         0         0         0         0         0         0         0         0 
dram[1]:         0         0         0         0         0         0         0         0         0         0         0         0         0         0         0         0 
dram[2]:         0         0         0         0         0         0         0         0         0         0         0         0         0         0         0         0 
dram[3]:         0         0         0         0         0         0         0         0         0         0         0         0         0         0         0         0 
dram[4]:         0         0         0         0         0         0         0         0         0         0         0         0         0         0         0         0 
dram[5]:         0         0         0         0         0         0         0         0         0         0         0         0         0         0         0         0 
dram[6]:         0         0         0         0         0         0         0         0         0         0         0         0         0         0         0         0 
dram[7]:         0         0         0         0         0         0         0         0         0         0         0         0         0         0         0         0 
dram[8]:         0         0         0         0         0         0         0         0         0         0         0         0         0         0         0         0 
dram[9]:         0         0         0         0         0         0         0         0         0         0         0         0         0         0         0         0 
dram[10]:         0         0         0         0         0         0         0         0         0         0         0         0         0         0         0         0 
dram[11]:         0         0         0         0         0         0         0         0         0         0         0         0         0         0         0         0 
dram[12]:         0         0         0         0         0         0         0         0         0         0         0         0         0         0         0         0 
dram[13]:         0         0         0         0         0         0         0         0         0         0         0         0         0         0         0         0 
dram[14]:         0         0         0         0         0         0         0         0         0         0         0         0         0         0         0         0 
dram[15]:         0         0         0         0         0         0         0         0         0         0         0         0         0         0         0         0 
dram[16]:         0         0         0         0         0         0         0         0         0         0         0         0         0         0         0         0 
dram[17]:         0         0         0         0         0         0         0         0         0         0         0         0         0         0         0         0 
dram[18]:         0         0         0         0         0         0         0         0         0         0         0         0         0         0         0         0 
dram[19]:         0         0         0         0         0         0         0         0         0         0         0         0         0         0         0         0 
dram[20]:         0         0         0         0         0         0         0         0         0         0         0         0         0         0         0         0 
dram[21]:         0         0         0         0         0         0         0         0         0         0         0         0         0         0         0         0 
dram[22]:         0         0         0         0         0         0         0         0         0         0         0         0         0         0         0         0 
dram[23]:         0         0         0         0         0         0         0         0         0         0         0         0         0         0         0         0 
dram[24]:         0         0         0         0         0         0         0         0         0         0         0         0         0         0         0         0 
dram[25]:         0         0         0         0         0         0         0         0         0         0         0         0         0         0         0         0 
dram[26]:         0         0         0         0         0         0         0         0         0         0         0         0         0         0         0         0 
dram[27]:         0         0         0         0         0         0         0         0         0         0         0         0         0         0         0         0 
dram[28]:         0         0         0         0         0         0         0         0         0         0         0         0         0         0         0         0 
dram[29]:         0         0         0         0         0         0         0         0         0         0         0         0         0         0         0         0 
dram[30]:         0         0         0         0         0         0         0         0         0         0         0         0         0         0         0         0 
dram[31]:         0         0         0         0         0         0         0         0         0         0         0         0         0         0         0         0 
maximum service time to same row:
dram[0]:         0         0         0         0         0         0         0         0         0         0         0         0         0         0         0         0 
dram[1]:         0         0         0         0         0         0         0         0         0         0         0         0         0         0         0         0 
dram[2]:         0         0         0         0         0         0         0         0         0         0         0         0         0         0         0         0 
dram[3]:         0         0         0         0         0         0         0         0         0         0         0         0         0         0         0         0 
dram[4]:         0         0         0         0         0         0         0         0         0         0         0         0         0         0         0         0 
dram[5]:         0         0         0         0         0         0         0         0         0         0         0         0         0         0         0         0 
dram[6]:         0         0         0         0         0         0         0         0         0         0         0         0         0         0         0         0 
dram[7]:         0         0         0         0         0         0         0         0         0         0         0         0         0         0         0         0 
dram[8]:         0         0         0         0         0         0         0         0         0         0         0         0         0         0         0         0 
dram[9]:         0         0         0         0         0         0         0         0         0         0         0         0         0         0         0         0 
dram[10]:         0         0         0         0         0         0         0         0         0         0         0         0         0         0         0         0 
dram[11]:         0         0         0         0         0         0         0         0         0         0         0         0         0         0         0         0 
dram[12]:         0         0         0         0         0         0         0         0         0         0         0         0         0         0         0         0 
dram[13]:         0         0         0         0         0         0         0         0         0         0         0         0         0         0         0         0 
dram[14]:         0         0         0         0         0         0         0         0         0         0         0         0         0         0         0         0 
dram[15]:         0         0         0         0         0         0         0         0         0         0         0         0         0         0         0         0 
dram[16]:         0         0         0         0         0         0         0         0         0         0         0         0         0         0         0         0 
dram[17]:         0         0         0         0         0         0         0         0         0         0         0         0         0         0         0         0 
dram[18]:         0         0         0         0         0         0         0         0         0         0         0         0         0         0         0         0 
dram[19]:         0         0         0         0         0         0         0         0         0         0         0         0         0         0         0         0 
dram[20]:         0         0         0         0         0         0         0         0         0         0         0         0         0         0         0         0 
dram[21]:         0         0         0         0         0         0         0         0         0         0         0         0         0         0         0         0 
dram[22]:         0         0         0         0         0         0         0         0         0         0         0         0         0         0         0         0 
dram[23]:         0         0         0         0         0         0         0         0         0         0         0         0         0         0         0         0 
dram[24]:         0         0         0         0         0         0         0         0         0         0         0         0         0         0         0         0 
dram[25]:         0         0         0         0         0         0         0         0         0         0         0         0         0         0         0         0 
dram[26]:         0         0         0         0         0         0         0         0         0         0         0         0         0         0         0         0 
dram[27]:         0         0         0         0         0         0         0         0         0         0         0         0         0         0         0         0 
dram[28]:         0         0         0         0         0         0         0         0         0         0         0         0         0         0         0         0 
dram[29]:         0         0         0         0         0         0         0         0         0         0         0         0         0         0         0         0 
dram[30]:         0         0         0         0         0         0         0         0         0         0         0         0         0         0         0         0 
dram[31]:         0         0         0         0         0         0         0         0         0         0         0         0         0         0         0         0 
average row accesses per activate:
dram[0]:      -nan      -nan      -nan      -nan      -nan      -nan      -nan      -nan      -nan      -nan      -nan      -nan      -nan      -nan      -nan      -nan 
dram[1]:      -nan      -nan      -nan      -nan      -nan      -nan      -nan      -nan      -nan      -nan      -nan      -nan      -nan      -nan      -nan      -nan 
dram[2]:      -nan      -nan      -nan      -nan      -nan      -nan      -nan      -nan      -nan      -nan      -nan      -nan      -nan      -nan      -nan      -nan 
dram[3]:      -nan      -nan      -nan      -nan      -nan      -nan      -nan      -nan      -nan      -nan      -nan      -nan      -nan      -nan      -nan      -nan 
dram[4]:      -nan      -nan      -nan      -nan      -nan      -nan      -nan      -nan      -nan      -nan      -nan      -nan      -nan      -nan      -nan      -nan 
dram[5]:      -nan      -nan      -nan      -nan      -nan      -nan      -nan      -nan      -nan      -nan      -nan      -nan      -nan      -nan      -nan      -nan 
dram[6]:      -nan      -nan      -nan      -nan      -nan      -nan      -nan      -nan      -nan      -nan      -nan      -nan      -nan      -nan      -nan      -nan 
dram[7]:      -nan      -nan      -nan      -nan      -nan      -nan      -nan      -nan      -nan      -nan      -nan      -nan      -nan      -nan      -nan      -nan 
dram[8]:      -nan      -nan      -nan      -nan      -nan      -nan      -nan      -nan      -nan      -nan      -nan      -nan      -nan      -nan      -nan      -nan 
dram[9]:      -nan      -nan      -nan      -nan      -nan      -nan      -nan      -nan      -nan      -nan      -nan      -nan      -nan      -nan      -nan      -nan 
dram[10]:      -nan      -nan      -nan      -nan      -nan      -nan      -nan      -nan      -nan      -nan      -nan      -nan      -nan      -nan      -nan      -nan 
dram[11]:      -nan      -nan      -nan      -nan      -nan      -nan      -nan      -nan      -nan      -nan      -nan      -nan      -nan      -nan      -nan      -nan 
dram[12]:      -nan      -nan      -nan      -nan      -nan      -nan      -nan      -nan      -nan      -nan      -nan      -nan      -nan      -nan      -nan      -nan 
dram[13]:      -nan      -nan      -nan      -nan      -nan      -nan      -nan      -nan      -nan      -nan      -nan      -nan      -nan      -nan      -nan      -nan 
dram[14]:      -nan      -nan      -nan      -nan      -nan      -nan      -nan      -nan      -nan      -nan      -nan      -nan      -nan      -nan      -nan      -nan 
dram[15]:      -nan      -nan      -nan      -nan      -nan      -nan      -nan      -nan      -nan      -nan      -nan      -nan      -nan      -nan      -nan      -nan 
dram[16]:      -nan      -nan      -nan      -nan      -nan      -nan      -nan      -nan      -nan      -nan      -nan      -nan      -nan      -nan      -nan      -nan 
dram[17]:      -nan      -nan      -nan      -nan      -nan      -nan      -nan      -nan      -nan      -nan      -nan      -nan      -nan      -nan      -nan      -nan 
dram[18]:      -nan      -nan      -nan      -nan      -nan      -nan      -nan      -nan      -nan      -nan      -nan      -nan      -nan      -nan      -nan      -nan 
dram[19]:      -nan      -nan      -nan      -nan      -nan      -nan      -nan      -nan      -nan      -nan      -nan      -nan      -nan      -nan      -nan      -nan 
dram[20]:      -nan      -nan      -nan      -nan      -nan      -nan      -nan      -nan      -nan      -nan      -nan      -nan      -nan      -nan      -nan      -nan 
dram[21]:      -nan      -nan      -nan      -nan      -nan      -nan      -nan      -nan      -nan      -nan      -nan      -nan      -nan      -nan      -nan      -nan 
dram[22]:      -nan      -nan      -nan      -nan      -nan      -nan      -nan      -nan      -nan      -nan      -nan      -nan      -nan      -nan      -nan      -nan 
dram[23]:      -nan      -nan      -nan      -nan      -nan      -nan      -nan      -nan      -nan      -nan      -nan      -nan      -nan      -nan      -nan      -nan 
dram[24]:      -nan      -nan      -nan      -nan      -nan      -nan      -nan      -nan      -nan      -nan      -nan      -nan      -nan      -nan      -nan      -nan 
dram[25]:      -nan      -nan      -nan      -nan      -nan      -nan      -nan      -nan      -nan      -nan      -nan      -nan      -nan      -nan      -nan      -nan 
dram[26]:      -nan      -nan      -nan      -nan      -nan      -nan      -nan      -nan      -nan      -nan      -nan      -nan      -nan      -nan      -nan      -nan 
dram[27]:      -nan      -nan      -nan      -nan      -nan      -nan      -nan      -nan      -nan      -nan      -nan      -nan      -nan      -nan      -nan      -nan 
dram[28]:      -nan      -nan      -nan      -nan      -nan      -nan      -nan      -nan      -nan      -nan      -nan      -nan      -nan      -nan      -nan      -nan 
dram[29]:      -nan      -nan      -nan      -nan      -nan      -nan      -nan      -nan      -nan      -nan      -nan      -nan      -nan      -nan      -nan      -nan 
dram[30]:      -nan      -nan      -nan      -nan      -nan      -nan      -nan      -nan      -nan      -nan      -nan      -nan      -nan      -nan      -nan      -nan 
dram[31]:      -nan      -nan      -nan      -nan      -nan      -nan      -nan      -nan      -nan      -nan      -nan      -nan      -nan      -nan      -nan      -nan 
average row locality = 0/0 = -nan
number of total memory accesses made:
dram[0]:         0         0         0         0         0         0         0         0         0         0         0         0         0         0         0         0 
dram[1]:         0         0         0         0         0         0         0         0         0         0         0         0         0         0         0         0 
dram[2]:         0         0         0         0         0         0         0         0         0         0         0         0         0         0         0         0 
dram[3]:         0         0         0         0         0         0         0         0         0         0         0         0         0         0         0         0 
dram[4]:         0         0         0         0         0         0         0         0         0         0         0         0         0         0         0         0 
dram[5]:         0         0         0         0         0         0         0         0         0         0         0         0         0         0         0         0 
dram[6]:         0         0         0         0         0         0         0         0         0         0         0         0         0         0         0         0 
dram[7]:         0         0         0         0         0         0         0         0         0         0         0         0         0         0         0         0 
dram[8]:         0         0         0         0         0         0         0         0         0         0         0         0         0         0         0         0 
dram[9]:         0         0         0         0         0         0         0         0         0         0         0         0         0         0         0         0 
dram[10]:         0         0         0         0         0         0         0         0         0         0         0         0         0         0         0         0 
dram[11]:         0         0         0         0         0         0         0         0         0         0         0         0         0         0         0         0 
dram[12]:         0         0         0         0         0         0         0         0         0         0         0         0         0         0         0         0 
dram[13]:         0         0         0         0         0         0         0         0         0         0         0         0         0         0         0         0 
dram[14]:         0         0         0         0         0         0         0         0         0         0         0         0         0         0         0         0 
dram[15]:         0         0         0         0         0         0         0         0         0         0         0         0         0         0         0         0 
dram[16]:         0         0         0         0         0         0         0         0         0         0         0         0         0         0         0         0 
dram[17]:         0         0         0         0         0         0         0         0         0         0         0         0         0         0         0         0 
dram[18]:         0         0         0         0         0         0         0         0         0         0         0         0         0         0         0         0 
dram[19]:         0         0         0         0         0         0         0         0         0         0         0         0         0         0         0         0 
dram[20]:         0         0         0         0         0         0         0         0         0         0         0         0         0         0         0         0 
dram[21]:         0         0         0         0         0         0         0         0         0         0         0         0         0         0         0         0 
dram[22]:         0         0         0         0         0         0         0         0         0         0         0         0         0         0         0         0 
dram[23]:         0         0         0         0         0         0         0         0         0         0         0         0         0         0         0         0 
dram[24]:         0         0         0         0         0         0         0         0         0         0         0         0         0         0         0         0 
dram[25]:         0         0         0         0         0         0         0         0         0         0         0         0         0         0         0         0 
dram[26]:         0         0         0         0         0         0         0         0         0         0         0         0         0         0         0         0 
dram[27]:         0         0         0         0         0         0         0         0         0         0         0         0         0         0         0         0 
dram[28]:         0         0         0         0         0         0         0         0         0         0         0         0         0         0         0         0 
dram[29]:         0         0         0         0         0         0         0         0         0         0         0         0         0         0         0         0 
dram[30]:         0         0         0         0         0         0         0         0         0         0         0         0         0         0         0         0 
dram[31]:         0         0         0         0         0         0         0         0         0         0         0         0         0         0         0         0 
total accesses: 0
min_bank_accesses = 0!
min_chip_accesses = 0!
number of total read accesses:
dram[0]:         0         0         0         0         0         0         0         0         0         0         0         0         0         0         0         0 
dram[1]:         0         0         0         0         0         0         0         0         0         0         0         0         0         0         0         0 
dram[2]:         0         0         0         0         0         0         0         0         0         0         0         0         0         0         0         0 
dram[3]:         0         0         0         0         0         0         0         0         0         0         0         0         0         0         0         0 
dram[4]:         0         0         0         0         0         0         0         0         0         0         0         0         0         0         0         0 
dram[5]:         0         0         0         0         0         0         0         0         0         0         0         0         0         0         0         0 
dram[6]:         0         0         0         0         0         0         0         0         0         0         0         0         0         0         0         0 
dram[7]:         0         0         0         0         0         0         0         0         0         0         0         0         0         0         0         0 
dram[8]:         0         0         0         0         0         0         0         0         0         0         0         0         0         0         0         0 
dram[9]:         0         0         0         0         0         0         0         0         0         0         0         0         0         0         0         0 
dram[10]:         0         0         0         0         0         0         0         0         0         0         0         0         0         0         0         0 
dram[11]:         0         0         0         0         0         0         0         0         0         0         0         0         0         0         0         0 
dram[12]:         0         0         0         0         0         0         0         0         0         0         0         0         0         0         0         0 
dram[13]:         0         0         0         0         0         0         0         0         0         0         0         0         0         0         0         0 
dram[14]:         0         0         0         0         0         0         0         0         0         0         0         0         0         0         0         0 
dram[15]:         0         0         0         0         0         0         0         0         0         0         0         0         0         0         0         0 
dram[16]:         0         0         0         0         0         0         0         0         0         0         0         0         0         0         0         0 
dram[17]:         0         0         0         0         0         0         0         0         0         0         0         0         0         0         0         0 
dram[18]:         0         0         0         0         0         0         0         0         0         0         0         0         0         0         0         0 
[...]
59.822
12.001
110.916
-122.985
38.788
-100.891
-104.184
-28.405
-31.132
2.937
31.039
183.377
-23.917
-61.945
127.707
40.078
-115.323
169.595
-19.765
-24.367
-61.681
-91.098
-78.932
-170.679
-61.503
-95.540
88.190
-6.285
168.092
-136.153
-50.220
-1.179
-177.531
-41.817
-66.134
-98.548
179.296
-59.105
72.550
108.424
81.501
161.047
1.203
-70.926
37.577
31.387
132.633
-2.783
89.692
103.583
-56.813
150.388
41.014
15.709
-111.235
29.046
-134.931
-116.794
-27.153
-139.430
167.273
-12.604
20.876
-13.146
-46.433
-72.341
-21.813
115.880
-61.242
125.489
-44.087
146.356
15.979
-32.946
-41.678
-118.345
-105.145
-23.044
-9.935
36.476
44.568
-21.616
-22.009
9.892
-77.404
87.568
-134.238
146.696
46.513
-203.469
38.632
82.776
-15.970
-11.243
28.736
-84.822
72.195
-169.926
-21.388
10.164
-39.390
113.568
-38.656
43.420
-8.378
60.865
-80.639
-65.486
-37.433
-102.830
1.872
-10.147
-4.694
84.073
141.269
-17.725
45.635
-24.040
58.903
-27.044
18.212
55.869
-127.931
76.382
-15.168
87.162
164.591
12.998
-10.170
-1.803
-14.295
-7.601
36.637
-59.835
39.889
-23.782
20.796
-79.222
50.335
-187.253
27.336
15.286
22.355
-97.251
97.723
-90.295
-93.125
-136.466
-169.478
39.550
-127.198
62.323
-1.975
-113.353
119.892
-33.433
20.905
-22.109
99.144
-78.469
-10.310
73.117
-99.266
-66.202
87.544
-16.310
84.290
38.077
119.676
-28.410
10.185
-40.449
-18.741
40.578
-89.677
-82.404
75.956
-2.490
83.643
-18.849
117.186
17.817
-43.692
88.277
-70.950
-4.083
-18.383
-111.303
164.226
-55.845
-61.573
36.200
-51.973
-36.744
68.083
-160.619
36.264
55.663
-32.245
-43.378
5.577
-107.547
68.321
153.516
-2.513
189.989
-86.530
-37.155
143.888
7.398
-41.356
40.291
25.679
31.004
20.474
0.489
-167.449
206.614
-4.234
104.429
34.993
208.032
75.893
21.255
115.938
176.585
25.334
162.885
72.499
156.977
-77.736
-71.414
-49.955
-55.090
143.144
-43.499
145.601
23.347
-50.361
-105.532
-59.641
-6.500
142.312
37.940
95.890
154.536
-28.557
15.126
33.285
-2.926
138.789
-167.360
-87.327
179.512
-37.705
112.777
21.634
40.463
31.646
100.666
2.861
193.274
31.514
90.185
-50.475
89.282
2.570
125.076
79.261
43.520
49.695
72.372
-36.851
-25.126
26.448
-242.404
17.466
-5.618
-61.310
-94.656
79.967
-116.684
-61.332
128.544
-95.560
110.315
-76.453
-2.397
60.353
-61.893
75.704
14.433
23.600
122.628
-60.764
17.251
105.725
-56.518
101.456
-128.985
-88.348
73.626
-59.057
100.270
18.158
-131.087
114.625
-69.300
-25.189
101.510
102.134
15.714
65.152
18.107
22.153
86.363
12.798
-37.737
39.097
-65.672
-4.731
6.994
-59.060
-109.333
-106.592
-72.863
59.001
-15.214
115.613
74.760
-0.076
24.741
7.239
18.317
115.462
-62.464
3.570
-112.475
71.403
8.369
-125.191
-73.323
-37.004
-5.199
104.217
-75.574
96.090
95.527
99.435
117.097
46.353
69.730
10.861
56.065
-125.165
8.892
-188.849
-14.769
-32.239
2.650
-2.611
-13.211
5.731
-87.088
105.341
-56.912
-65.077
-25.521
-24.646
-120.159
-2.961
-41.295
63.929
142.746
-104.500
29.805
-135.746
14.346
107.832
-8.879
160.099
19.709
-74.301
83.714
-116.905
-69.409
-131.541
-92.354
111.833
14.892
12.558
-28.025
-25.889
-82.257
-88.083
-51.062
32.866
111.449
112.128
93.515
-158.206
-9.218
-175.873
-94.236
-17.932
-76.729
-30.375
-96.511
-53.785
-125.894
-154.361
39.239
26.715
-29.911
-17.277
140.394
5.109
4.789
117.170
28.447
38.644
79.644
58.589
133.209
148.356
66.853
-63.034
-126.937
-34.476
-20.110
11.231
93.364
-0.143
40.935
91.010
-2.570
-25.863
45.898
-112.665
138.439
25.377
-18.773
72.668
-25.221
-69.978
2.732
-31.656
-105.647
174.011
-85.292
50.146
159.375
85.474
-2.538
-44.017
-10.195
24.532
111.588
-45.594
25.285
-33.962
51.576
40.654
-109.282
-28.039
-130.623
-142.893
-45.482
-23.910
0.332
11.057
216.946
-23.123
-33.424
21.013
-47.430
7.453
99.893
33.135
123.656
85.101
74.185
76.612
31.144
106.456
-41.114
89.556
46.604
-76.266
-84.817
-84.771
-23.268
92.189
134.354
14.058
108.661
-30.160
16.526
-11.292
43.370
-31.964
108.315
93.832
57.072
32.959
-3.972
-19.154
75.232
-85.985
-59.305
-66.686
-59.805
185.448
-101.178
71.252
-40.829
48.338
-33.984
171.518
-88.390
-12.737
98.932
48.044
-201.234
24.031
-97.761
-3.115
-63.818
43.683
-61.752
-68.014
-89.551
-78.870
5.429
-256.747
-6.941
-93.840
19.310
-5.379
71.337
17.796
2.413
-55.285
-239.219
74.721
-119.730
-9.920
38.134
-7.563
39.522
-129.326
71.778
92.027
57.601
70.799
-15.797
-61.751
107.259
6.754
98.338
55.505
10.049
133.082
-25.122
-5.528
103.731
23.511
-159.471
176.797
19.895
22.383
111.048
69.147
31.327
12.562
-170.733
-4.407
48.409
129.778
-29.919
-61.738
-43.352
-88.307
-28.422
21.093
-54.206
10.727
-133.251
-146.509
9.111
-36.090
69.643
-76.121
36.837
-167.571
-129.021
36.336
-77.192
-21.724
-46.673
-65.441
96.060
-7.125
55.795
91.432
-44.267
-37.097
-83.486
-154.486
-76.936
-26.872
2.697
63.769
-17.938
166.197
14.387
28.708
-88.042
-23.965
-36.948
-102.012
-149.467
-25.526
-28.809
38.473
27.109
-30.941
58.747
17.413
65.144
-0.267
-1.340
-39.999
-225.994
53.018
-65.859
136.268
223.297
47.095
112.174
-21.231
-81.468
-103.377
-174.799
-17.265
62.455
-117.550
159.165
-40.516
-89.805
-3.594
102.834
-67.301
98.156
98.322
106.807
71.002
-135.651
-20.970
-30.668
55.194
-8.115
65.482
195.069
-41.835
-28.012
-72.975
-223.128
67.500
-62.069
-66.597
50.475
46.305
0.069
96.096
-0.017
-248.641
96.128
-108.323
42.304
1.837
60.370
110.737
-144.975
29.260
-50.023
-152.071
182.158
-14.175
77.776
146.773
137.993
152.516
83.038
-59.198
38.832
-43.843
141.591
33.233
2.721
-26.254
-139.961
194.581
-183.022
7.461
148.006
-90.658
139.843
-86.318
95.722
-64.940
-104.321
-68.428
77.243
67.957
-141.511
-8.694
-199.785
-70.350
-72.175
-150.706
-13.553
-80.394
-42.412
-92.273
140.303
-133.185
143.629
203.732
11.538
-33.085
22.617
-129.200
-9.987
-26.180
3.583
96.350
24.000
-26.797
-32.309
64.663
-24.473
59.987
127.325
-51.687
142.236
-117.510
40.617
167.775
-50.573
12.574
0.300
192.282
3.815
205.399
44.631
133.710
-73.552
15.675
16.137
178.812
11.293
18.342
84.796
50.885
46.113
91.941
-96.434
55.802
63.855
45.423
148.162
-5.957
125.562
-77.026
58.743
62.213
153.791
24.997
58.155
80.513
1.744
47.926
25.222
106.267
64.903
-108.531
67.193
-17.646
0.559
-85.089
-39.153
-112.777
61.627
-101.600
-12.819
146.532
-47.915
71.015
69.862
23.008
20.034
76.475
21.057
40.877
-50.374
-81.651
-66.699
-2.118
-70.869
-106.930
51.481
-63.916
-178.444
-16.025
18.323
-47.649
37.762
-16.717
88.276
137.661
103.876
90.666
39.369
66.513
39.085
133.137
51.762
94.510
45.780
-78.744
-58.019
-9.290
-91.191
-108.723
137.326
-71.867
81.217
50.520
-109.332
126.457
37.119
-131.063
45.293
59.467
-42.303
-93.068
62.825
18.965
5.158
-49.648
-85.957
-11.338
-110.059
76.955
112.768
-71.171
-35.733
8.630
164.904
113.157
142.608
-72.481
24.524
-91.532
-60.839
-112.918
40.242
-25.406
118.956
-18.042
126.905
67.649
1.143
4.634
-18.597
-168.516
-30.036
-136.858
-83.833
-44.187
-114.735
66.652
29.566
-135.619
-7.336
11.274
4.407
30.551
-106.600
-64.159
39.886
-89.162
117.831
164.559
164.684
62.375
39.303
20.180
-5.714
-120.429
-1.709
-160.772
-17.596
81.651
2.277
12.806
15.815
38.793
-76.093
-79.002
-36.980
-22.852
-125.222
162.586
-85.768
-131.093
185.811
-105.117
27.470
121.236
67.020
163.291
63.355
9.524
169.917
-23.046
-11.201
-76.056
60.032
-51.479
145.459
-42.732
-118.027
35.052
-31.535
-18.885
-5.702
155.210
-98.414
-49.163
74.879
21.028
27.705
107.159
81.423
85.573
-2.160
28.854
-24.894
14.309
-72.063
-119.652
-46.031
90.094
-45.684
147.723
-22.515
5.929
119.463
-128.968
117.443
-30.104
57.798
174.986
-14.090
51.430
-19.558
20.931
50.640
-17.730
51.555
19.308
7.756
-110.744
8.626
-199.864
-127.821
95.959
-44.823
-106.198
-35.145
32.509
-115.566
87.028
3.716
-11.066
-118.420
57.840
-104.753
-76.069
25.098
10.000
3.936
177.355
29.646
-3.653
58.033
-95.094
94.261
-46.058
-67.313
33.035
89.653
115.810
-11.038
79.120
-117.625
-101.998
133.195
87.997
119.502
42.313
159.298
14.726
162.244
45.252
147.153
169.900
-45.672
22.951
-54.566
-50.402
97.366
-58.866
-17.238
-164.331
73.652
81.421
70.312
45.488
-160.134
189.847
-128.637
9.816
131.572
-71.599
-137.852
60.632
106.683
-115.380
68.582
-18.953
-145.048
-121.619
39.516
-77.661
32.724
13.355
-40.621
135.091
-41.068
-46.997
-47.963
76.453
-12.662
9.582
-94.311
-13.141
-42.142
-186.366
178.982
-29.323
14.637
38.131
22.870
34.094
27.234
-16.364
26.532
-34.424
34.257
10.415
-54.480
-63.051
-35.862
-31.282
62.860
-81.289
28.381
-142.291
-33.192
-41.445
2.717
-48.511
33.678
-11.688
34.664
-46.368
-46.312
-71.366
11.068
-187.098
14.034
104.715
-79.949
63.153
81.500
-110.868
110.844
57.744
-59.693
121.686
54.082
-129.312
28.773
-46.892
9.113
-1.452
-99.680
9.979
-83.860
60.757
-20.413
-3.699
34.722
-31.310
122.266
-13.955
-28.382
8.540
-65.840
96.387
-114.361
103.827
-6.980
25.789
76.752
88.126
88.440
98.574
150.719
15.422
-2.400
-77.081
-25.140
22.273
-128.830
-64.893
80.172
28.789
-20.429
-120.161
-130.746
25.482
7.778
-59.540
6.564
-3.273
21.639
23.347
-83.288
-109.826
-73.469
8.467
46.846
48.726
6.515
-12.656
15.241
86.882
10.290
12.985
25.901
88.915
64.692
128.193
163.632
58.434
40.124
-18.127
26.415
-121.637
101.097
36.153
29.117
17.865
-16.485
-25.326
45.008
28.324
-78.167
-6.466
-24.099
-69.868
-66.701
-14.688
-99.617
43.342
-72.409
-36.570
35.274
137.174
-3.585
24.357
136.882
-272.645
30.694
-33.069
-132.980
-23.703
42.335
-10.739
120.455
44.412
-102.780
16.676
-50.030
1.732
-30.255
-25.686
11.234
43.590
178.452
-127.416
190.835
-3.476
-57.179
133.203
-45.540
95.402
25.252
-20.223
2.175
-35.658
-53.800
-45.774
-28.037
-44.784
-13.659
73.427
-20.236
-83.669
-178.329
-93.105
-41.892
-24.319
-96.732
57.125
33.685
-33.549
-61.845
18.936
-90.551
-131.832
-142.889
26.919
-47.075
92.253
86.205
62.725
46.809
-37.017
81.221
7.351
65.782
169.533
-41.464
4.032
-80.722
9.508
146.401
-54.366
105.191
-35.334
73.904
-15.759
60.526
58.876
21.689
-53.019
24.558
45.092
19.902
126.221
110.430
100.274
-15.760
-31.400
47.161
-129.576
-50.351
-34.783
-207.190
130.619
21.166
88.244
93.877
-31.220
-8.812
-2.385
20.388
-70.993
60.073
-33.801
16.651
34.867
37.045
23.812
-88.039
32.849
125.650
-8.242
-46.933
9.325
-132.709
63.342
122.366
-74.086
174.795
80.580
157.772
42.684
70.368
-212.121
-63.065
-83.811
-114.483
10.992
-46.452
65.516
-46.103
65.162
41.039
7.007
-2.017
-109.521
8.389
14.430
-50.709
-102.315
96.646
-68.660
-4.739
68.905
100.213
123.220
46.855
-57.800
139.819
12.683
43.171
6.374
37.635
-61.508
136.686
91.997
13.100
-60.368
-96.196
-61.014
-83.295
65.626
47.962
-24.092
-51.136
-101.295
141.302
-34.731
94.953
43.255
135.940
-10.753
-33.392
22.353
52.668
-69.494
-88.840
-107.602
-48.881
-29.895
-18.606
21.946
-41.624
99.867
14.454
47.804
-3.302
85.623
38.027
-67.042
30.177
-6.421
-28.980
39.506
195.925
-53.049
23.332
102.652
-144.724
192.031
-39.471
8.160
51.046
-2.400
-10.371
81.848
12.455
86.080
-41.205
-41.794
-35.596
0.963
-11.424
126.541
60.202
74.002
118.261
-39.289
-64.101
-74.964
-7.377
50.674
-77.175
238.139
-10.806
47.627
42.854
-32.083
1.233
-85.315
82.108
97.103
38.265
8.127
68.543
-74.502
-46.370
19.476
-190.422
165.148
109.687
126.062
172.627
30.721
25.110
72.097
-52.304
-95.660
4.329
4.691
-27.297
-65.696
-93.541
-114.002
106.581
-175.649
18.681
-1.545
53.595
-9.591
-10.875
13.137
-83.073
-22.852
23.135
-91.791
-71.759
37.897
-55.649
60.705
9.912
-200.689
-30.191
-100.880
-23.491
-116.316
31.694
-4.712
-97.571
248.335
-74.792
64.338
-65.742
135.051
-18.142
33.111
-37.786
-128.548
-18.261
70.827
-53.038
96.528
-13.001
-67.103
44.266
-61.264
-58.333
-29.059
-67.403
-109.254
-154.867
-147.796
-111.572
-15.164
74.558
66.285
33.400
43.314
55.631
-129.307
-14.804
49.975
-165.446
-56.844
96.274
-51.938
22.210
-102.427
-147.276
98.367
-18.291
2.685
63.654
-122.803
-56.943
-156.289
9.089
-70.153
-69.461
-27.836
8.884
47.673
134.152
3.696
54.755
90.661
-29.418
61.726
68.613
13.705
185.605
-27.471
105.835
186.772
-143.521
47.986
-73.795
-26.993
-193.154
-59.600
-63.097
1.387
29.453
-63.283
-11.329
14.062
-83.867
1.852
-44.532
-30.645
-72.028
79.065
10.140
55.313
119.788
-36.176
156.428
28.593
72.822
32.359
-25.684
-67.561
-41.653
-47.765
-77.785
37.628
-40.989
131.056
-57.586
45.972
-45.733
-7.762
-21.494
53.184
-74.651
-30.790
-36.192
-72.166
85.805
-99.596
-33.970
51.778
25.781
-83.701
-56.357
25.831
-56.950
-57.262
-158.812
-31.908
-160.116
49.352
-7.813
113.807
159.346
32.069
36.042
38.742
32.591
-153.073
-2.557
65.029
126.995
73.841
34.451
10.189
4.909
-140.179
-1.948
127.549
-166.079
90.062
7.530
-23.059
72.645
49.062
104.429
68.426
-9.053
54.214
-20.395
-28.100
-42.843
34.801
-34.512
69.565
52.330
65.053
65.414
18.669
-167.117
-52.178
15.202
59.224
142.906
118.400
93.477
141.469
-106.611
129.856
124.595
69.274
55.840
134.109
-71.419
-87.932
67.409
-18.121
119.684
-30.295
-58.331
-94.954
-65.264
-23.793
86.185
-39.277
-0.258
27.209
-227.339
-84.660
71.996
-63.179
41.575
71.391
13.464
31.643
-70.790
-28.915
-1.922
-21.553
39.954
-68.609
87.188
-61.169
59.011
-46.781
-0.003
-77.530
-119.422
18.023
-71.540
-70.685
60.577
53.569
6.983
-157.031
21.589
67.792
2.082
66.716
-110.911
-88.410
-145.143
65.578
-46.783
139.246
38.244
-55.773
55.505
61.319
-97.926
-8.908
-48.554
-76.690
-15.927
-6.174
-27.402
39.237
-51.225
-50.837
-15.828
-14.593
47.319
140.415
-104.637
16.520
70.729
-109.603
-88.571
137.980
-38.028
115.488
-32.505
-110.200
71.418
79.904
152.139
-41.839
170.962
-27.394
20.038
47.342
-3.478
21.106
68.740
-114.704
54.428
48.666
160.449
3.054
59.653
-14.895
-20.703
-148.859
81.661
-153.330
-113.042
-106.477
-78.960
23.175
-57.421
114.480
113.526
79.534
18.873
47.151
58.171
54.876
94.771
66.791
-60.330
113.366
22.362
75.708
-51.764
17.019
108.513
42.824
-30.562
3.129
102.445
63.311
57.576
18.815
-82.577
-8.583
-141.287
-13.230
-14.376
62.160
-26.056
30.695
-177.417
31.146
-2.719
-0.258
8.735
42.912
-114.681
-3.058
-7.953
97.089
68.173
-65.744
128.106
-57.405
29.662
41.250
-12.043
56.989
15.683
5.255
-30.697
16.262
-136.087
10.791
-2.732
-21.420
73.373
26.609
115.933
36.558
111.467
190.596
-13.361
107.924
137.011
186.563
80.653
-98.897
15.064
25.920
-34.611
34.410
-109.130
-88.318
-59.364
-35.036
123.110
-19.996
25.599
16.068
-27.353
65.355
-66.179
24.857
-28.695
-11.896
-169.454
28.539
34.348
-3.395
-28.771
114.058
92.087
121.380
-29.780
-4.453
29.222
62.525
-18.040
-80.739
106.578
-44.478
-37.939
74.398
-63.248
-23.568
113.826
-84.966
75.398
107.603
3.173
42.787
-95.194
12.554
-109.891
-21.453
66.083
-11.036
112.547
-28.201
-64.414
-22.830
17.943
109.703
-56.507
76.176
-57.313
-108.178
-18.132
19.219
-4.029
50.398
155.814
57.659
32.188
18.587
61.578
-23.447
80.448
67.821
105.996
33.704
109.542
-65.068
-113.645
120.675
-73.101
12.041
192.172
-60.481
55.775
-15.038
-106.242
179.647
35.893
15.304
-59.668
132.265
17.529
97.109
113.952
-103.409
109.832
51.194
4.028
-143.627
-11.815
-94.013
-91.467
107.077
29.023
-60.614
97.743
-110.133
134.993
8.653
25.391
23.824
60.375
75.211
7.645
-78.939
-124.928
53.512
-212.350
85.301
-40.310
5.709
95.315
7.131
-16.865
78.080
-71.148
158.395
25.281
60.434
43.830
-92.731
72.464
38.929
-1.527
-67.403
21.862
-119.554
-14.177
-19.132
-48.533
4.653
79.032
-182.500
-50.454
-75.826
-102.788
77.885
-92.848
-32.695
85.941
100.449
105.800
23.757
0.264
-74.317
-159.691
-101.487
-47.939
-79.895
31.838
-72.490
79.584
-153.709
70.294
100.221
42.301
67.652
-152.621
38.579
-80.151
-46.990
-71.817
-52.516
-144.895
-73.836
-93.341
58.827
-31.388
181.772
-117.865
24.352
-92.141
-5.741
-135.387
-47.584
-197.559
62.747
171.455
-55.205
94.625
-10.525
45.236
-48.046
14.379
-198.528
-14.477
-102.781
-34.003
71.378
-16.851
-100.676
-46.788
25.497
-68.842
60.848
4.204
33.865
-63.541
74.200
-14.508
202.378
-41.851
52.173
-190.138
47.911
-0.373
-112.535
35.192
-56.414
-115.583
58.204
-123.305
115.098
69.583
43.743
53.826
-67.181
2.531
0.179
78.593
-39.941
-22.549
-164.792
40.831
85.822
-35.190
93.453
-7.408
108.995
88.010
-41.728
-12.621
37.793
32.967
74.208
65.979
75.425
32.660
78.931
-8.710
155.783
-11.769
-118.063
76.871
7.630
52.348
8.971
-24.288
54.373
106.390
124.817
58.577
-153.490
-96.457
13.486
3.780
52.529
53.203
-19.726
-208.190
-15.588
-25.157
41.655
69.629
8.217
37.192
-24.142
104.716
-25.956
33.576
-32.107
-0.214
-78.109
23.831
-27.826
122.996
58.738
-145.934
-4.902
-78.202
-20.640
-47.072
155.639
65.295
-9.222
125.685
-38.512
-149.618
-0.004
-9.698
101.873
-64.054
-52.559
30.243
-29.518
-44.125
69.984
10.806
76.603
-36.387
4.498
-13.596
-80.479
-53.972
172.931
8.730
9.485
83.116
-92.499
-14.016
99.171
-58.756
-29.270
53.977
-65.432
-47.422
172.118
3.804
47.075
-75.773
26.762
7.077
123.350
0.065
-44.438
17.513
-27.350
104.778
-42.942
45.119
95.974
-6.566
-65.979
-59.245
3.403
-19.516
-8.466
31.775
-31.197
-30.033
-35.197
87.029
-35.806
73.942
97.074
-107.686
-21.135
-119.855
-21.992
-67.010
14.654
15.998
-31.188
7.624
75.216
-12.399
13.128
-168.079
70.677
-163.179
28.183
-3.407
-82.122
-35.652
70.270
-62.766
-31.488
-8.163
-67.329
11.643
-124.853
47.587
-0.298
20.593
22.723
106.847
-24.508
162.056
83.099
-250.585
159.425
-60.080
-116.955
60.553
-74.514
-49.898
67.018
-19.961
104.767
-151.147
111.737
-34.618
-4.909
116.159
-32.477
-0.998
-63.248
77.297
-7.399
-5.944
75.650
25.766
-55.670
33.023
-109.642
8.188
57.961
-57.960
67.977
26.212
-7.866
-99.183
35.216
106.900
-2.251
164.163
-32.013
-90.842
146.310
-69.734
-15.296
-61.284
36.122
25.632
-26.411
11.500
69.291
-36.355
-3.179
-85.500
-160.307
123.880
-152.998
36.581
97.376
112.116
-27.365
-11.888
94.123
-62.080
-26.420
15.310
-43.836
40.906
52.593
-48.717
113.407
-68.350
-16.445
-65.922
147.067
36.404
-49.102
86.388
61.097
-86.256
-25.563
46.947
-80.672
140.542
-182.267
45.044
133.931
-82.015
-0.722
-47.672
-87.086
-53.366
-30.972
31.099
25.415
80.349
5.993
86.230
-6.994
56.854
0.295
46.170
-68.585
40.134
127.131
38.533
115.158
37.745
-151.300
148.170
-25.821
30.876
-38.394
-22.946
15.772
31.857
37.146
8.919
71.751
85.075
26.025
53.304
37.541
50.932
-109.189
67.210
-54.589
35.721
-23.708
-9.449
97.013
14.610
144.869
-144.918
-103.259
-75.601
95.349
-70.272
88.566
-13.950
-113.578
89.079
-65.680
28.435
49.244
-48.512
123.087
30.974
4.236
63.006
15.581
74.273
-132.289
-118.077
21.727
-56.796
-35.425
-80.726
43.754
-6.482
86.406
-2.899
1.926
49.725
-29.161
142.734
78.259
27.653
0.141
-39.760
11.619
17.096
-27.798
-111.967
38.711
-69.084
-7.811
-11.672
-133.271
102.169
16.570
72.781
93.694
-49.776
-8.832
-18.816
-12.784
96.444
-15.583
92.294
103.048
-37.826
-51.602
25.270
-80.852
-21.441
103.620
19.591
43.084
160.667
-27.021
-102.587
-51.623
92.164
-67.883
68.464
36.356
-132.007
-13.636
6.989
-54.769
92.616
-45.355
65.876
44.343
-123.267
-50.056
101.219
36.195
-84.723
137.800
-43.773
-13.230
19.921
5.228
-125.778
199.971
18.235
-120.918
11.130
-24.982
-30.002
71.217
1.979
-68.457
38.884
10.597
-25.123
-131.448
11.405
13.702
-9.530
-85.535
35.826
79.173
51.947
36.075
-44.950
-9.260
-19.493
-12.538
105.757
5.400
39.621
13.455
-93.782
88.273
33.425
20.717
94.257
-65.826
49.424
43.277
-31.809
3.771
13.342
-100.299
-98.001
9.408
-1.149
-77.972
164.950
-123.240
86.071
20.918
-68.617
69.552
25.970
-26.927
-31.627
41.355
-53.316
129.654
-2.898
-34.979
-61.256
-90.276
-75.003
-32.017
44.779
79.923
0.562
56.284
1.669
-46.603
57.106
10.692
-24.543
-23.476
-59.090
-47.220
95.663
33.289
23.242
-39.376
9.131
67.230
-58.319
-24.698
48.694
-102.845
12.358
-58.089
15.265
79.715
-59.529
-50.067
-5.283
44.234
46.344
-78.243
-16.755
106.248
-64.506
-78.647
22.837
-13.905
-66.553
-18.088
132.152
-2.952
53.256
13.810
76.488
46.478
41.292
95.451
36.804
-165.596
82.244
-58.242
-25.469
42.239
-80.256
6.465
26.708
-99.896
43.064
-72.206
32.725
-3.616
3.318
-63.642
70.494
97.622
0.894
103.856
-62.298
61.133
-9.285
35.790
22.564
-71.777
163.806
-3.675
-0.174
69.752
-92.093
131.906
-38.592
-60.570
-123.099
33.438
-16.524
-10.861
1.179
-66.433
77.402
63.068
43.183
-59.984
132.299
-27.523
-50.863
130.940
-111.503
134.200
-86.475
-95.821
137.886
-90.763
43.112
45.974
-12.819
-103.594
108.042
12.479
-26.864
88.012
-15.144
-110.707
67.136
14.639
-13.118
-29.681
104.154
0.737
-38.011
7.873
33.601
-86.066
-21.635
-63.054
33.084
-61.778
52.621
31.744
111.984
-4.904
GPGPU-Sim: *** exit detected ***
